19
Iteration:  4997charge 0 multiplicity 1
 C        -0.017701         0.031369        -0.061582
 C         1.463298        -0.089891         0.169457
 C         2.330248        -1.232393        -0.052703
 C         3.231793         0.061590         0.053847
 C         4.619522         0.191592         0.605980
 O         4.467964        -0.406163         1.931850
 C         3.042139        -0.137606         2.434095
 C         2.284949         0.454592         1.285424
 O         2.229895         0.669758        -0.939162
 H        -0.331802         1.077802        -0.509262
 H        -0.566785        -0.805931        -0.653215
 H        -0.454028        -0.271969         0.976710
 H         2.540331        -2.036450         0.656172
 H         2.387672        -1.651875        -1.003905
 H         5.449450        -0.344135         0.052801
 H         4.822927         1.241107         0.779163
 H         2.672362        -1.093683         2.819133
 H         3.042379         0.643649         3.138462
 H         2.244327         1.505417         1.197730
