19
Iteration:  1094
 C        -0.065664         0.170931        -0.027388
 C         1.402524        -0.071294        -0.022069
 C         2.217096        -1.411893        -0.090732
 C         3.251552        -0.300676         0.099226
 C         4.621753        -0.123202         0.617790
 O         4.504639         0.235047         2.071356
 C         3.138151        -0.035173         2.461329
 C         2.340355         0.457752         1.185299
 O         2.243817         0.497450        -0.959922
 H        -0.522576        -0.573193         0.612617
 H        -0.243195         1.122653         0.592730
 H        -0.645920         0.245165        -0.914350
 H         2.031959        -2.072399         0.798460
 H         2.278212        -1.809829        -1.138279
 H         5.318982        -0.984669         0.732804
 H         5.115434         0.757161         0.178725
 H         2.870631        -1.107039         2.860024
 H         2.873402         0.736147         3.223586
 H         2.504442         1.570814         1.137642
