19
Iteration:  1721charge 0 multiplicity 1
 C        -0.088040        -0.013640         0.012000
 C         1.395255        -0.130166         0.073078
 C         2.353901        -1.350451         0.093694
 C         3.232333        -0.070848         0.071208
 C         4.705643         0.045238         0.603054
 O         4.422072        -0.282107         2.074629
 C         3.066334         0.130793         2.331171
 C         2.360788         0.623405         1.069967
 O         2.251744         0.559399        -0.999954
 H        -0.506929        -0.206867         1.144197
 H        -0.421835         0.960449        -0.292590
 H        -0.792193        -0.571810        -0.640916
 H         2.341861        -1.885276         1.078088
 H         2.330190        -1.946785        -0.865028
 H         5.361323        -0.892641         0.336604
 H         5.177500         0.999736         0.599623
 H         2.433445        -0.669923         2.823427
 H         3.100100         1.017289         3.048244
 H         2.307469         1.777609         1.069770
