19
Iteration:  4983charge 0 multiplicity 1
 C        -0.104372         0.026312         0.007072
 C         1.394764        -0.133039         0.076944
 C         2.434591        -1.312149        -0.098479
 C         3.135295         0.069216         0.125087
 C         4.618906         0.212074         0.651277
 O         4.522461        -0.404639         1.935269
 C         3.046977        -0.140141         2.424441
 C         2.295787         0.556938         1.241741
 O         2.271420         0.667499        -0.943024
 H        -0.183418         0.993022        -0.539857
 H        -0.372425        -0.750452        -0.638127
 H        -0.487753         0.277685         0.942685
 H         2.389508        -2.079935         0.685550
 H         2.363597        -1.776795        -1.152895
 H         5.289407        -0.430463         0.066552
 H         4.971377         1.179609         0.587939
 H         2.663316        -1.169070         2.692804
 H         3.161976         0.366445         3.452261
 H         2.063551         1.666054         1.440588
