19
Iteration:   758
 C        -0.031010         0.008907         0.041305
 C         1.390428        -0.031512         0.111010
 C         2.340717        -1.308198         0.056787
 C         3.177411        -0.047239         0.097338
 C         4.613161        -0.025100         0.546744
 O         4.405134        -0.163861         2.007305
 C         3.028671         0.055422         2.379038
 C         2.367208         0.596572         1.142561
 O         2.319378         0.478651        -1.006841
 H        -0.292669        -0.565545         1.043301
 H        -0.389757         1.023571        -0.021346
 H        -0.362904        -0.587780        -0.770808
 H         2.285456        -1.946367         0.957122
 H         2.434783        -1.839313        -0.967283
 H         5.384547        -0.634330         0.209739
 H         5.033347         0.968713         0.423492
 H         2.602588        -0.964351         2.687691
 H         3.038720         0.662065         3.387818
 H         2.455904         1.696859         1.092461
