19
Iteration:  4172charge 0 multiplicity 1
 C        -0.139631         0.040645        -0.104699
 C         1.399121        -0.097544         0.082037
 C         2.361999        -1.263440         0.077804
 C         3.221856        -0.085826         0.110727
 C         4.663393         0.115651         0.620517
 O         4.460833        -0.318861         1.967412
 C         3.058940        -0.067961         2.432377
 C         2.369103         0.511100         1.145241
 O         2.248224         0.659967        -0.934482
 H        -0.569053        -0.322658         0.884802
 H        -0.304215         1.101387        -0.011070
 H        -0.445757        -0.428020        -1.109013
 H         2.445449        -1.829365         1.017158
 H         2.654117        -1.892751        -0.761422
 H         5.418884        -0.569367         0.121457
 H         4.857950         1.245665         0.471684
 H         2.515134        -0.979146         2.631624
 H         2.945541         0.597233         3.295006
 H         2.342987         1.619489         1.115053
