19
Iteration:  4110
 C        -0.152207        -0.038336        -0.112925
 C         1.312642        -0.031446         0.100449
 C         2.280345        -1.295021         0.001071
 C         3.229349        -0.077782         0.057399
 C         4.682154         0.049048         0.594341
 O         4.454924        -0.262990         1.986707
 C         3.093736         0.042480         2.419061
 C         2.367879         0.476438         1.204094
 O         2.375754         0.651357        -0.892030
 H        -0.604604        -0.987107        -0.138632
 H        -0.463509         0.471502         0.781702
 H        -0.701557         0.533619        -0.924856
 H         2.318229        -1.736332         1.017258
 H         2.250651        -1.997552        -0.773185
 H         5.339582        -0.715924         0.265249
 H         5.047324         1.063602         0.403086
 H         2.638885        -0.934229         2.878768
 H         3.263408         0.863986         3.109609
 H         2.282562         1.555340         1.253878
