19
Iteration:  3160
 C        -0.063606         0.125550         0.041477
 C         1.414771        -0.101156         0.190490
 C         2.331465        -1.371358         0.046672
 C         3.200644        -0.098772         0.008266
 C         4.660849         0.037044         0.595281
 O         4.361140        -0.208130         2.006571
 C         3.068831         0.136922         2.417577
 C         2.436241         0.566740         1.085517
 O         2.257952         0.423504        -1.013875
 H        -0.579554        -0.390683         0.821191
 H        -0.285305         1.220530         0.156597
 H        -0.399552        -0.295927        -0.837678
 H         2.391494        -2.048779         0.964326
 H         2.311299        -1.672916        -1.005979
 H         5.350333        -0.836239         0.562742
 H         5.179977         0.957397         0.282898
 H         2.524659        -0.751166         2.910166
 H         3.152928         0.994179         3.177295
 H         2.279439         1.665680         1.008820
