19
Iteration:  1329
 C        -0.002961         0.202845        -0.189792
 C         1.426491        -0.121095         0.123055
 C         2.259625        -1.384032         0.007463
 C         3.182310        -0.277985         0.187873
 C         4.570921        -0.053797         0.545907
 O         4.481795         0.142363         1.933874
 C         3.111502        -0.012245         2.414248
 C         2.387491         0.477229         1.316082
 O         2.214143         0.498688        -0.870884
 H        -0.730092        -0.004820         0.694388
 H         0.001826         1.209421        -0.470358
 H        -0.259756        -0.530054        -0.947964
 H         2.478970        -2.182612         0.768521
 H         2.256364        -1.963507        -0.924050
 H         5.259673        -0.915618         0.385189
 H         4.957425         0.949572         0.193462
 H         2.811969        -1.095111         2.579135
 H         2.968623         0.584141         3.332650
 H         2.317178         1.563362         1.080589
