19
Iteration:  2454
 C        -0.121182         0.252190        -0.261596
 C         1.317834        -0.132188         0.109268
 C         2.176481        -1.396213         0.129294
 C         3.166947        -0.292508         0.126725
 C         4.664236         0.043174         0.567879
 O         4.544091         0.089502         1.961875
 C         3.162031        -0.018480         2.502931
 C         2.416202         0.569178         1.265821
 O         2.260607         0.355123        -0.899646
 H        -0.705696         0.218394         0.639315
 H        -0.099455         1.338354        -0.596994
 H        -0.425058        -0.455988        -0.995499
 H         2.330530        -2.204699         0.894445
 H         2.142605        -1.881601        -0.865895
 H         5.480354        -0.525523         0.041928
 H         4.803880         1.047220         0.149312
 H         2.884374        -1.156732         2.567440
 H         3.126710         0.439520         3.460621
 H         2.618662         1.599286         0.986106
