19
Iteration:  2327
 C        -0.044979         0.057761        -0.027945
 C         1.386731        -0.144670         0.202029
 C         2.292232        -1.345225         0.140673
 C         3.196712        -0.043508         0.163740
 C         4.644709        -0.080497         0.509611
 O         4.383860        -0.162656         1.956607
 C         3.080104         0.216915         2.431541
 C         2.325047         0.624494         1.132663
 O         2.389275         0.406351        -1.019064
 H        -0.579359        -0.867015         0.358707
 H        -0.400054         1.014463         0.247541
 H        -0.137448         0.086175        -1.093461
 H         2.197938        -1.970605         0.990950
 H         2.363499        -1.881462        -0.804269
 H         5.127965        -1.018566         0.132785
 H         5.037510         0.914371         0.103363
 H         2.577688        -0.564256         2.973141
 H         3.157136         1.132337         3.070861
 H         2.145195         1.662652         0.945882
