19
Iteration:  3532charge 0 multiplicity 1
 C        -0.114924        -0.020157        -0.062460
 C         1.442823        -0.046275         0.207080
 C         2.223914        -1.344369         0.254394
 C         3.189685        -0.040883         0.059290
 C         4.660618        -0.017249         0.532264
 O         4.481863        -0.322866         1.969086
 C         3.032174         0.205240         2.382301
 C         2.367334         0.735096         1.161449
 O         2.343616         0.432987        -1.053685
 H        -0.789729        -0.276561         0.822612
 H        -0.266826         0.964873        -0.476529
 H        -0.326455        -0.885569        -0.863527
 H         2.176605        -1.915894         1.149652
 H         2.172803        -1.876717        -0.697934
 H         5.402221        -0.736949         0.070481
 H         5.105700         1.009619         0.462732
 H         2.537797        -0.620136         2.691530
 H         3.124072         0.927658         3.160699
 H         2.463566         1.820068         1.171648
