19
Iteration:  2359
 C        -0.133670        -0.026572         0.035199
 C         1.385720        -0.018726         0.071872
 C         2.280906        -1.308928         0.093349
 C         3.252752        -0.127796         0.082299
 C         4.649237        -0.241797         0.609197
 O         4.460826        -0.025881         2.073614
 C         3.024352         0.168522         2.386206
 C         2.447772         0.593340         1.046812
 O         2.255002         0.545554        -1.044941
 H        -0.354440        -0.919546         0.734169
 H        -0.486943         0.908509         0.465931
 H        -0.234783        -0.283054        -0.990906
 H         2.243694        -1.835122         1.027493
 H         2.233889        -2.038149        -0.709458
 H         5.162889        -1.131793         0.525832
 H         5.457375         0.509076         0.320433
 H         2.574844        -0.710488         2.771345
 H         3.031852         0.932255         3.135231
 H         2.455426         1.641704         0.908330
