19
Iteration:  4211
 C        -0.041751         0.034305        -0.043855
 C         1.405536        -0.124185         0.170785
 C         2.301914        -1.260652        -0.090005
 C         3.215255        -0.072035         0.111968
 C         4.593961         0.085144         0.531350
 O         4.441084        -0.180499         1.977278
 C         3.010773        -0.096244         2.448209
 C         2.312364         0.467431         1.286611
 O         2.376094         0.633634        -0.952490
 H        -0.667351         0.279184         0.810014
 H        -0.149563         0.802692        -0.850964
 H        -0.568394        -0.786337        -0.416966
 H         2.187318        -2.000127         0.714434
 H         2.259617        -1.723153        -1.155417
 H         5.378497        -0.521312         0.058176
 H         5.031302         1.039710         0.397485
 H         2.789449        -1.028600         2.989742
 H         3.135010         0.529022         3.413895
 H         2.378177         1.589473         1.215705
