19
Iteration:  4815
 C        -0.057147         0.018349        -0.039963
 C         1.455917        -0.018644         0.087267
 C         2.352660        -1.282163        -0.108300
 C         3.181774        -0.090836         0.079889
 C         4.642257         0.027081         0.503121
 O         4.465521        -0.067797         1.970284
 C         3.064783        -0.185221         2.448908
 C         2.265605         0.475141         1.334527
 O         2.306733         0.615307        -0.858927
 H        -0.431265         0.662719         0.699571
 H        -0.310391         0.627102        -0.901422
 H        -0.726405        -0.836070         0.022134
 H         2.178318        -2.197081         0.615610
 H         2.220438        -1.600933        -1.113034
 H         5.311537        -0.698656         0.164293
 H         5.011369         0.994747         0.344886
 H         2.584596        -1.244240         2.611955
 H         3.106580         0.435004         3.337997
 H         2.257884         1.613017         1.326122
