19
Iteration:  2954charge 0 multiplicity 1
 C        -0.048675         0.106925        -0.160486
 C         1.390784        -0.104784         0.131601
 C         2.259172        -1.378159         0.118125
 C         3.161836        -0.189587         0.087674
 C         4.573023        -0.070808         0.521696
 O         4.487024        -0.126697         1.957265
 C         3.132276         0.154778         2.461267
 C         2.351685         0.584557         1.213197
 O         2.319009         0.499447        -0.899400
 H        -0.631158        -0.648261         0.368596
 H        -0.590683         0.977509         0.330907
 H        -0.310589         0.090776        -1.207829
 H         2.342345        -1.851557         1.062990
 H         2.115770        -1.985977        -0.747083
 H         5.276333        -0.859748         0.188573
 H         5.119468         0.900835         0.176222
 H         2.698581        -0.675326         2.959458
 H         3.335524         1.014538         3.079665
 H         2.332665         1.669623         0.939888
