19
Iteration:  3323charge 0 multiplicity 1
 C        -0.082089         0.127977        -0.003573
 C         1.341979        -0.163941         0.110735
 C         2.282708        -1.392818         0.136476
 C         3.211425        -0.140250         0.018944
 C         4.594401        -0.085198         0.585361
 O         4.518471         0.080434         2.050090
 C         3.072630        -0.035151         2.436950
 C         2.389355         0.560612         1.104343
 O         2.308653         0.520100        -1.050749
 H        -0.453736         0.268339         1.047797
 H        -0.159483         1.160653        -0.471136
 H        -0.746452        -0.624580        -0.385269
 H         2.175432        -2.064422         1.013714
 H         2.240517        -1.913401        -0.782939
 H         5.238442        -1.009807         0.334205
 H         5.238431         0.729327         0.360256
 H         2.743636        -1.030134         2.643515
 H         2.732898         0.625359         3.224123
 H         2.459270         1.636233         0.903518
