19
Iteration:  2677
 C        -0.035059         0.130349         0.015916
 C         1.381992        -0.106654         0.075322
 C         2.250496        -1.400311         0.021478
 C         3.253532        -0.183567         0.139519
 C         4.660982        -0.120904         0.527968
 O         4.429698         0.097538         1.967268
 C         3.036269         0.008943         2.408039
 C         2.328817         0.578751         1.176183
 O         2.366839         0.497857        -0.915687
 H        -0.580614        -0.124879         0.990227
 H        -0.211292         1.147448        -0.206500
 H        -0.703738        -0.327364        -0.822854
 H         2.014498        -1.954192         0.940453
 H         2.197360        -2.007719        -0.853248
 H         5.045505        -1.113594         0.334004
 H         5.387630         0.648722         0.079109
 H         2.690076        -1.188876         2.456901
 H         2.900170         0.651629         3.321395
 H         2.421013         1.706428         1.114722
