19
Iteration:  2967
 C        -0.165339         0.139382        -0.051123
 C         1.354499        -0.076759         0.147388
 C         2.252953        -1.377321         0.178646
 C         3.230675        -0.106395         0.162524
 C         4.715195        -0.081936         0.490241
 O         4.499640        -0.115489         1.938451
 C         3.036760         0.181657         2.372047
 C         2.308904         0.493447         1.163617
 O         2.377572         0.471821        -0.943688
 H        -0.682415        -0.814370         0.164015
 H        -0.372570         1.094483         0.335586
 H        -0.199315         0.197607        -1.188703
 H         2.066463        -2.126971         0.954234
 H         2.414232        -1.893705        -0.736165
 H         5.262594        -1.085286         0.200324
 H         5.103538         0.938620         0.110863
 H         2.855394        -0.720238         2.891875
 H         2.883753         0.867433         3.181985
 H         2.256915         1.611428         1.163410
