19
Iteration:  1614charge 0 multiplicity 1
 C        -0.056118         0.171236        -0.175732
 C         1.418976        -0.151699         0.167578
 C         2.222562        -1.419669         0.057911
 C         3.198775        -0.183560         0.147970
 C         4.614047        -0.139401         0.499152
 O         4.505781         0.190350         1.904679
 C         3.084109         0.036245         2.386784
 C         2.218163         0.432880         1.303151
 O         2.393938         0.513485        -0.832055
 H        -0.827849        -0.464971         0.287056
 H        -0.284417         1.109946         0.289717
 H        -0.209359        -0.026466        -1.241889
 H         2.298085        -2.238876         0.821694
 H         2.199589        -1.757461        -1.015280
 H         5.164947        -1.060150         0.267315
 H         5.237492         0.697849         0.071351
 H         2.823426        -1.050867         2.714948
 H         3.007303         0.856629         3.132369
 H         2.216917         1.564110         1.426108
