19
Iteration:  1758charge 0 multiplicity 1
 C        -0.013611        -0.032130        -0.024145
 C         1.466171        -0.069257         0.180613
 C         2.296731        -1.298032         0.087293
 C         3.220974        -0.072541         0.038214
 C         4.600013         0.087029         0.539265
 O         4.354843        -0.355861         1.967086
 C         3.087928         0.149833         2.380644
 C         2.228560         0.667390         1.248941
 O         2.370235         0.472204        -1.004613
 H        -0.343460         0.177089         0.912127
 H        -0.370315         0.797926        -0.721438
 H        -0.325655        -1.054786        -0.303961
 H         2.461297        -2.071194         0.868957
 H         2.281037        -1.824292        -0.890789
 H         5.234446        -0.599241         0.104263
 H         5.165044         1.091660         0.504022
 H         2.592490        -0.554386         3.230593
 H         3.328554         1.038245         2.986327
 H         2.155439         1.776659         1.049017
