19
Iteration:  3161charge 0 multiplicity 1
 C        -0.057558         0.124206         0.042358
 C         1.427311        -0.096047         0.188707
 C         2.324684        -1.374205         0.039899
 C         3.205466        -0.093517         0.007878
 C         4.660501         0.029910         0.607249
 O         4.367391        -0.207997         1.999602
 C         3.071522         0.138106         2.419156
 C         2.422412         0.569356         1.081012
 O         2.251702         0.417997        -1.008214
 H        -0.572766        -0.397140         0.843479
 H        -0.277091         1.181319         0.195377
 H        -0.371762        -0.290010        -0.880719
 H         2.360818        -2.019627         0.950832
 H         2.300525        -1.668823        -0.984512
 H         5.331816        -0.784893         0.552585
 H         5.180807         0.932038         0.301961
 H         2.486381        -0.752796         2.904320
 H         3.155577         1.003792         3.169481
 H         2.270120         1.689655         0.996704
