19
Iteration:  4490
 C        -0.051329         0.012512        -0.052880
 C         1.468539        -0.067742         0.140587
 C         2.263074        -1.243451        -0.047243
 C         3.270518        -0.024586         0.003381
 C         4.623386         0.140901         0.611097
 O         4.459402        -0.313853         1.979705
 C         3.112628        -0.116080         2.478673
 C         2.342737         0.536689         1.198781
 O         2.203596         0.649167        -0.969180
 H        -0.540434         0.512221         0.699572
 H        -0.206350         0.208462        -1.097802
 H        -0.493138        -1.030028         0.133237
 H         2.115319        -1.890404         0.923764
 H         2.268436        -1.756860        -1.011068
 H         5.383805        -0.559809         0.268561
 H         5.116086         1.048260         0.703277
 H         2.634984        -1.106719         2.821211
 H         2.941513         0.592472         3.446875
 H         2.242641         1.596574         1.499923
