19
Iteration:  1317charge 0 multiplicity 1
 C        -0.039123         0.116714        -0.157400
 C         1.376874        -0.128423         0.157237
 C         2.279736        -1.395455         0.006036
 C         3.165434        -0.126453         0.109142
 C         4.612299        -0.085836         0.492495
 O         4.521806         0.083173         2.019793
 C         3.146067         0.032820         2.491711
 C         2.254135         0.472348         1.244734
 O         2.309350         0.492997        -0.913893
 H        -0.830732        -0.040893         0.689907
 H        -0.110005         1.122716        -0.392620
 H        -0.353890        -0.307166        -1.101108
 H         2.122754        -2.096996         0.846054
 H         2.188053        -1.716908        -1.031907
 H         5.176876        -1.025046         0.226867
 H         5.129802         0.756022        -0.014159
 H         2.920052        -0.981091         2.864837
 H         3.126226         0.714492         3.352992
 H         2.214393         1.566605         1.295035
