19
Iteration:   547
 C        -0.196293         0.083224        -0.165179
 C         1.342033        -0.081422         0.078835
 C         2.200631        -1.387882         0.005882
 C         3.261087        -0.195737         0.117815
 C         4.671145        -0.181971         0.575848
 O         4.484717         0.271218         1.959060
 C         3.197756        -0.007367         2.454249
 C         2.342958         0.369465         1.284285
 O         2.348958         0.588414        -0.861342
 H        -0.727244        -0.542913         0.469460
 H        -0.619572         1.191005        -0.064664
 H        -0.379131        -0.213045        -1.258197
 H         2.170020        -2.142902         0.813620
 H         2.121562        -1.862232        -0.990274
 H         5.123294        -1.081286         0.308809
 H         5.264710         0.509369         0.084294
 H         3.105990        -1.029275         2.653925
 H         3.017764         0.570610         3.444072
 H         2.181418         1.517646         1.312014
