19
Iteration:  1876charge 0 multiplicity 1
 C         0.001558         0.172025         0.030443
 C         1.391318        -0.155018         0.162450
 C         2.250191        -1.372379         0.007010
 C         3.212265        -0.150333         0.056179
 C         4.601878        -0.109976         0.682982
 O         4.457818         0.216212         2.015788
 C         3.056774        -0.013021         2.365746
 C         2.378993         0.522997         1.126963
 O         2.260738         0.410526        -1.019076
 H        -0.810872        -0.483703         0.272725
 H        -0.283646         1.029089         0.761354
 H        -0.195310         0.390653        -1.077029
 H         2.300826        -2.145658         0.825543
 H         2.196368        -1.874775        -0.979070
 H         5.140354        -1.197323         0.554851
 H         5.282969         0.511055         0.090846
 H         3.022936        -1.056155         2.556532
 H         3.096851         0.344198         3.351214
 H         2.457921         1.569443         1.065666
