19
Iteration:   201charge 0 multiplicity 1
 C        -0.082038         0.058751        -0.055283
 C         1.425604        -0.020333         0.109621
 C         2.332290        -1.355413         0.230080
 C         3.241589        -0.024908         0.074762
 C         4.611987         0.226369         0.584139
 O         4.358120        -0.356105         1.891380
 C         3.066033         0.032456         2.450744
 C         2.416713         0.624028         1.187632
 O         2.283435         0.373265        -1.057616
 H        -0.602601        -0.328849         0.698634
 H        -0.631856         1.069892        -0.175925
 H        -0.351594        -0.603500        -0.947780
 H         2.434517        -1.860318         1.288741
 H         2.324983        -1.996377        -0.688610
 H         5.551633        -0.214736         0.133599
 H         4.927284         1.227606         0.668915
 H         2.685177        -0.854999         3.013947
 H         3.302149         0.854761         3.200232
 H         2.370565         1.763780         1.030926
