19
Iteration:  2770charge 0 multiplicity 1
 C        -0.134234         0.099722        -0.270537
 C         1.421211        -0.069118         0.200560
 C         2.167471        -1.345317         0.132764
 C         3.194827        -0.099384         0.099845
 C         4.648245        -0.065576         0.500385
 O         4.532759        -0.027251         1.967267
 C         3.150423         0.011178         2.531006
 C         2.435674         0.555180         1.251526
 O         2.239471         0.446028        -0.976350
 H        -0.610253        -0.810151         0.045173
 H        -0.712791         0.927965         0.320100
 H        -0.300856         0.347608        -1.302556
 H         2.133244        -1.864777         1.107929
 H         2.010854        -1.991007        -0.772623
 H         5.350577        -0.888795         0.283441
 H         5.119046         0.822858         0.219954
 H         2.994326        -0.958214         3.052438
 H         3.287952         0.889643         3.160994
 H         2.195847         1.620170         1.235616
