19
Iteration:  3300
 C        -0.035392         0.167349         0.018233
 C         1.394249        -0.072846         0.128413
 C         2.262064        -1.434797         0.044691
 C         3.237197        -0.191052         0.115133
 C         4.634837        -0.021087         0.508555
 O         4.405034         0.027032         1.929720
 C         3.061045         0.007584         2.444811
 C         2.365143         0.592492         1.174625
 O         2.352518         0.418934        -0.925531
 H        -0.711129         0.191887         0.904556
 H        -0.245187         1.178432        -0.591360
 H        -0.397272        -0.718666        -0.474695
 H         2.226696        -2.090900         0.919496
 H         2.076088        -1.924878        -0.886847
 H         5.529086        -0.738041         0.389963
 H         5.046582         0.897709         0.157926
 H         2.672011        -1.017514         2.644034
 H         2.753140         0.705841         3.212112
 H         2.327592         1.645077         0.996736
