19
Iteration:  2043
 C        -0.054504        -0.042456         0.118740
 C         1.482305        -0.025402         0.070491
 C         2.346515        -1.324020         0.013277
 C         3.315821        -0.098787         0.033702
 C         4.686060         0.010226         0.618727
 O         4.290435        -0.284871         2.054034
 C         3.040001         0.185106         2.412884
 C         2.384394         0.613029         1.054906
 O         2.207019         0.512061        -1.034041
 H        -0.248555        -0.216116         1.260991
 H        -0.487897         0.929415        -0.220938
 H        -0.372714        -0.893341        -0.517339
 H         2.379334        -1.968534         0.955512
 H         2.264999        -1.937829        -0.916130
 H         5.359420        -0.851014         0.255725
 H         5.195646         1.010537         0.401488
 H         2.431518        -0.491658         2.998356
 H         3.141200         1.052920         3.126075
 H         2.389506         1.749319         1.008740
