19
Iteration:  4092
 C        -0.078211        -0.007950        -0.065270
 C         1.443834        -0.045771         0.026306
 C         2.240687        -1.351137         0.034731
 C         3.216359        -0.074292         0.131272
 C         4.620575         0.006750         0.603776
 O         4.506254        -0.221661         2.020301
 C         3.108869        -0.036493         2.476149
 C         2.364249         0.595335         1.193174
 O         2.229707         0.634514        -0.981265
 H        -0.363383        -0.983709        -0.498814
 H        -0.663991         0.321660         0.839188
 H        -0.291588         0.657809        -0.854247
 H         2.065718        -2.015681         0.929970
 H         2.293366        -1.708265        -1.046355
 H         5.381831        -0.654463         0.029969
 H         5.032552         1.038734         0.396180
 H         2.690086        -0.914865         2.866992
 H         3.037230         0.750634         3.332500
 H         2.471638         1.700376         1.132377
