19
Iteration:  4597
 C         0.008064         0.142652        -0.054572
 C         1.409109        -0.108091         0.100326
 C         2.292949        -1.363887        -0.110086
 C         3.180413        -0.000272         0.081640
 C         4.541017        -0.023812         0.495703
 O         4.456227         0.035070         1.982134
 C         3.095771        -0.297687         2.440697
 C         2.274486         0.333446         1.325078
 O         2.346713         0.761554        -0.859523
 H        -0.235207         1.002589        -0.654681
 H        -0.439803        -0.720622        -0.589370
 H        -0.545629         0.010152         0.924296
 H         2.259458        -2.112843         0.666680
 H         2.443384        -1.839735        -1.010889
 H         5.328010        -0.816218         0.352463
 H         5.033576         1.003289         0.289639
 H         3.037377        -1.318912         2.615820
 H         2.901509         0.272829         3.372774
 H         2.172636         1.435169         1.280484
