19
Iteration:  3382charge 0 multiplicity 1
 C        -0.055579         0.078948        -0.190699
 C         1.386903        -0.101795         0.227893
 C         2.202762        -1.408452         0.157391
 C         3.088732        -0.227497         0.016942
 C         4.583556        -0.104593         0.565609
 O         4.541802         0.043965         1.973645
 C         3.165889         0.120962         2.432059
 C         2.323136         0.562026         1.192424
 O         2.358339         0.534051        -0.938756
 H        -0.592633        -0.567428         0.474830
 H        -0.422541         0.965053         0.094748
 H        -0.169790         0.027423        -1.285594
 H         2.064931        -1.969246         1.124311
 H         2.028981        -2.085953        -0.768326
 H         5.151669        -1.021016         0.429122
 H         5.119334         0.843677         0.122808
 H         2.825298        -0.948589         2.731978
 H         3.137083         0.686965         3.374508
 H         2.538095         1.627791         0.877562
