19
Iteration:  2430
 C        -0.039328         0.333341        -0.188731
 C         1.376560        -0.213364         0.158970
 C         2.192247        -1.463100         0.134181
 C         3.155373        -0.150013         0.082654
 C         4.597567         0.044766         0.518497
 O         4.533699         0.105075         1.975877
 C         3.138094         0.001562         2.454328
 C         2.296975         0.417846         1.258728
 O         2.316308         0.400518        -0.928302
 H        -0.553284         0.462426         0.703068
 H         0.082975         1.302975        -0.672306
 H        -0.259562        -0.544125        -0.760427
 H         2.257177        -2.171496         1.030114
 H         2.307758        -2.077561        -0.771384
 H         5.209766        -0.832718         0.049812
 H         5.002738         0.875738         0.008047
 H         3.028324        -1.107285         2.737301
 H         2.937331         0.641528         3.366033
 H         2.199732         1.545825         1.081671
