19
Iteration:   712charge 0 multiplicity 1
 C        -0.106068        -0.115753        -0.055636
 C         1.414525        -0.112461         0.230563
 C         2.401628        -1.277961         0.118114
 C         3.204201         0.001036         0.083149
 C         4.542538         0.057136         0.628498
 O         4.337246        -0.449345         1.883331
 C         3.104033         0.212318         2.365420
 C         2.401677         0.705133         1.153317
 O         2.326256         0.534179        -0.959656
 H        -0.633867        -0.707511         0.649013
 H        -0.585976         0.970323        -0.139634
 H        -0.280850        -0.590782        -1.029548
 H         2.580822        -1.945799         1.009957
 H         2.325084        -1.688888        -0.909707
 H         5.213720        -0.731825         0.264252
 H         5.111209         0.938328         0.538768
 H         2.756354        -0.450414         3.126799
 H         3.407506         1.173184         2.962436
 H         2.359436         1.868443         1.017515
