19
Iteration:  1312
 C        -0.096866         0.112240        -0.161473
 C         1.361328        -0.168658         0.167900
 C         2.242302        -1.401304         0.025933
 C         3.139505        -0.061178         0.082087
 C         4.633414        -0.081695         0.504178
 O         4.548337         0.058535         2.019210
 C         3.120422         0.021002         2.511835
 C         2.261134         0.495862         1.218447
 O         2.354721         0.512318        -0.928056
 H        -0.678462        -0.243138         0.643728
 H        -0.124162         1.288382        -0.306431
 H        -0.443776        -0.438871        -1.082267
 H         2.131513        -2.164653         0.800612
 H         2.297697        -1.829955        -0.996873
 H         5.098554        -1.031658         0.273082
 H         5.220152         0.718357         0.051772
 H         3.098893        -0.978236         3.006154
 H         3.155091         0.796746         3.291054
 H         2.285655         1.595085         1.230124
