19
Iteration:  2638charge 0 multiplicity 1
 C        -0.169202         0.045656        -0.165575
 C         1.362228        -0.105445         0.120931
 C         2.153083        -1.337450         0.049013
 C         3.164247        -0.115499         0.103781
 C         4.656215        -0.050072         0.555292
 O         4.561917        -0.097373         2.023569
 C         3.130914         0.070369         2.455032
 C         2.404997         0.608375         1.221645
 O         2.332477         0.495973        -0.912591
 H        -0.742191         0.200106         0.714292
 H        -0.107445         0.936580        -0.900513
 H        -0.529306        -0.783315        -0.719325
 H         2.027789        -2.032995         0.911400
 H         2.127353        -1.891377        -0.930947
 H         5.430589        -0.848905         0.206111
 H         5.099771         0.889174         0.209996
 H         2.783178        -0.881832         2.830726
 H         3.228239         0.786753         3.320695
 H         2.369235         1.692856         1.058568
