19
Iteration:  1169charge 0 multiplicity 1
 C        -0.128758         0.003653        -0.210546
 C         1.394401        -0.103894         0.092378
 C         2.248061        -1.283500         0.156545
 C         3.224653        -0.073405         0.156210
 C         4.719159        -0.019172         0.543319
 O         4.486923        -0.179062         1.985136
 C         3.119020         0.063520         2.433671
 C         2.414682         0.578797         1.212136
 O         2.195275         0.536644        -0.938799
 H        -0.648165        -0.034928         0.656840
 H        -0.450859         1.020596        -0.643664
 H        -0.568601        -0.760561        -0.808580
 H         2.305983        -2.007444         0.981931
 H         2.258166        -1.900952        -0.740603
 H         5.485654        -0.735188         0.285007
 H         5.057486         1.002657         0.343136
 H         2.786505        -0.860948         2.655933
 H         2.969419         0.700089         3.283357
 H         2.419302         1.698264         1.194267
