19
Iteration:  1611
 C        -0.029238         0.183379        -0.164521
 C         1.388992        -0.131023         0.153912
 C         2.238130        -1.422598         0.072364
 C         3.204870        -0.167886         0.133614
 C         4.636877        -0.152802         0.478184
 O         4.481301         0.204590         1.906440
 C         3.072481         0.017712         2.401425
 C         2.231003         0.433668         1.270017
 O         2.380929         0.512608        -0.821650
 H        -0.732006        -0.573421         0.420993
 H        -0.246818         1.124366         0.227651
 H        -0.107689        -0.080729        -1.183392
 H         2.243894        -2.235185         0.830604
 H         2.234673        -1.768979        -0.971881
 H         5.183104        -1.176367         0.248269
 H         5.207562         0.666607         0.108118
 H         2.795573        -1.082015         2.714569
 H         3.034990         0.841590         3.205939
 H         2.100292         1.529939         1.457721
