19
Iteration:  3191
 C        -0.135799         0.000252        -0.000440
 C         1.405914        -0.057690         0.052806
 C         2.302566        -1.343722         0.181545
 C         3.197266        -0.122912         0.114300
 C         4.610938        -0.011146         0.510756
 O         4.466495        -0.271920         2.001113
 C         3.051271         0.167137         2.453223
 C         2.389153         0.639605         1.082566
 O         2.341878         0.535549        -1.018372
 H        -0.475590        -0.806038         0.617823
 H        -0.510520         0.909714         0.624892
 H        -0.496275         0.018315        -0.989587
 H         2.232758        -1.935488         1.177623
 H         2.461829        -2.001046        -0.747065
 H         5.413084        -0.894241         0.302651
 H         5.092176         0.961919         0.166039
 H         2.439073        -0.602937         2.839559
 H         3.098084         1.003741         3.168370
 H         2.382076         1.701506         0.925210
