19
Iteration:  3995
 C        -0.126061         0.078346        -0.089629
 C         1.402774        -0.132798         0.196326
 C         2.202265        -1.400701        -0.006537
 C         3.207482        -0.188254         0.042758
 C         4.650133        -0.025888         0.543216
 O         4.529799        -0.009731         2.045929
 C         3.055943         0.008371         2.427004
 C         2.385600         0.526363         1.140219
 O         2.350349         0.584301        -0.896094
 H        -0.140443         0.642790        -1.058017
 H        -0.684633        -0.905457         0.143346
 H        -0.452546         0.816293         0.593021
 H         2.139235        -1.978900         0.875921
 H         1.924113        -1.803719        -1.006184
 H         5.304279        -0.907552         0.247177
 H         5.014065         0.964863         0.337821
 H         2.655118        -1.008549         2.780692
 H         3.022705         0.803126         3.183655
 H         2.229969         1.635850         1.020640
