19
Iteration:   765charge 0 multiplicity 1
 C        -0.088684         0.033736         0.061517
 C         1.412264        -0.089667         0.151928
 C         2.351252        -1.380698         0.032998
 C         3.203465        -0.090015         0.090077
 C         4.627146        -0.004585         0.499262
 O         4.422125        -0.118986         2.059210
 C         3.045189         0.046046         2.342401
 C         2.337398         0.611418         1.146016
 O         2.345539         0.504682        -0.982458
 H        -0.569604        -0.336753         0.882511
 H        -0.374442         1.171550        -0.054345
 H        -0.419557        -0.493861        -0.861817
 H         2.370312        -2.062526         0.896376
 H         2.194396        -1.691463        -0.974079
 H         5.416248        -0.834153         0.334565
 H         5.009887         1.016896         0.366534
 H         2.730419        -0.950791         2.518732
 H         2.841474         0.569665         3.254092
 H         2.288704         1.760556         1.071429
