19
Iteration:  2737charge 0 multiplicity 1
 C        -0.095176         0.170735        -0.081853
 C         1.419489        -0.107593         0.114533
 C         2.206960        -1.416888         0.069065
 C         3.170335        -0.222459         0.164627
 C         4.582366        -0.094596         0.550828
 O         4.532866         0.063459         1.937838
 C         3.088045         0.038532         2.370807
 C         2.322469         0.540361         1.164760
 O         2.412346         0.496691        -0.871116
 H        -0.592181        -0.714619         0.224351
 H        -0.279676         0.912003         0.780752
 H        -0.297862         0.395912        -1.075212
 H         2.084136        -1.979154         1.003984
 H         2.175053        -1.999763        -0.899065
 H         5.200678        -0.952653         0.221377
 H         4.813463         0.804009         0.059461
 H         2.791637        -0.870658         2.796154
 H         2.853001         0.761725         3.135371
 H         2.227569         1.622571         1.005604
