19
Iteration:   123charge 0 multiplicity 1
 C        -0.105093        -0.072148        -0.070091
 C         1.386085        -0.084505         0.009714
 C         2.176499        -1.337070        -0.060338
 C         3.202476        -0.221412         0.146712
 C         4.749401        -0.102513         0.637726
 O         4.564365        -0.031826         2.056363
 C         3.107264         0.198457         2.384716
 C         2.334847         0.491990         1.214466
 O         2.227116         0.665963        -0.902599
 H        -0.469093        -0.570480         0.666325
 H        -0.665641         0.927559        -0.142122
 H        -0.418584        -0.550653        -1.066868
 H         1.967306        -2.026200         0.760391
 H         2.333291        -1.956632        -0.993691
 H         5.210080        -1.082407         0.540274
 H         5.321675         0.685962         0.211748
 H         2.778347        -0.741604         2.800542
 H         3.135329         0.948234         3.224216
 H         2.352626         1.591712         0.941114
