19
Iteration:  1664
 C        -0.076233         0.092467        -0.163003
 C         1.320757        -0.073661         0.149336
 C         2.201947        -1.375740         0.124075
 C         3.180984        -0.212964         0.139381
 C         4.682037         0.039927         0.602250
 O         4.567061         0.013150         1.952475
 C         3.074913         0.015280         2.418275
 C         2.346553         0.526230         1.146038
 O         2.311243         0.494568        -0.934809
 H        -0.726231        -0.840117         0.199112
 H        -0.538065         1.010248         0.343912
 H        -0.179846         0.038822        -1.268163
 H         2.097603        -1.903779         1.074070
 H         2.105619        -2.084045        -0.691894
 H         5.438835        -0.779044         0.259482
 H         5.130085         0.922890         0.175342
 H         2.724375        -0.968353         2.625325
 H         3.088904         0.576616         3.387716
 H         2.462007         1.605733         1.168883
