19
Iteration:  2844charge 0 multiplicity 1
 C        -0.166677         0.038560         0.086057
 C         1.434835        -0.113689        -0.007733
 C         2.288640        -1.354848         0.085468
 C         3.207251        -0.145900        -0.014132
 C         4.632464         0.027174         0.630330
 O         4.468204        -0.237324         2.075964
 C         3.034693         0.130599         2.391133
 C         2.438661         0.596853         1.127871
 O         2.299650         0.533564        -1.011491
 H        -0.319253         0.061394         1.119443
 H        -0.219104         1.078903        -0.400896
 H        -0.769528        -0.548362        -0.508995
 H         2.249856        -1.900951         0.940600
 H         2.190305        -1.980575        -0.786045
 H         5.442114        -0.608093         0.389721
 H         5.103590         1.083839         0.527527
 H         2.552101        -0.806284         2.696117
 H         3.040539         0.917695         3.133233
 H         2.430647         1.645782         0.818546
