19
Iteration:  4684charge 0 multiplicity 1
 C        -0.170600         0.007277        -0.047211
 C         1.413909        -0.149186         0.205698
 C         2.331174        -1.304804        -0.102641
 C         3.163599         0.018752         0.091445
 C         4.681785         0.138447         0.586036
 O         4.481621        -0.288736         1.944717
 C         3.043539        -0.143918         2.400648
 C         2.263881         0.534178         1.264824
 O         2.411185         0.704446        -0.899587
 H        -0.293922         0.880407        -0.631345
 H        -0.623737        -0.895402        -0.493447
 H        -0.737777         0.191079         0.945049
 H         2.391059        -2.154594         0.656367
 H         2.316622        -1.475944        -1.145950
 H         5.315779        -0.605981         0.089174
 H         5.130886         1.161938         0.425136
 H         2.711524        -1.152909         2.640783
 H         2.900925         0.377703         3.337772
 H         2.305509         1.650150         1.223480
