19
Iteration:  3343
 C        -0.103675         0.109223        -0.015531
 C         1.401989        -0.072372         0.005738
 C         2.243122        -1.350827         0.036840
 C         3.203911        -0.152298         0.126838
 C         4.656810        -0.145187         0.597603
 O         4.532876         0.080174         1.997548
 C         3.089326         0.083110         2.399954
 C         2.307315         0.574780         1.242507
 O         2.299325         0.429798        -0.992386
 H        -0.484823        -0.113095         1.019279
 H        -0.363517         1.224771        -0.438667
 H        -0.622139        -0.684697        -0.564114
 H         2.195215        -2.029877         0.862365
 H         2.400592        -1.956580        -0.845536
 H         5.026595        -1.183298         0.335793
 H         5.313951         0.636947         0.235146
 H         2.619193        -1.093390         2.634121
 H         3.124995         0.675910         3.329670
 H         2.316658         1.650745         1.171171
