19
Iteration:  1780charge 0 multiplicity 1
 C        -0.179817         0.000366        -0.115788
 C         1.406968        -0.169703         0.139521
 C         2.394402        -1.334194         0.253874
 C         3.177866         0.008205         0.085658
 C         4.587582         0.023491         0.489540
 O         4.432235        -0.317150         1.914916
 C         3.055586         0.108454         2.417374
 C         2.401923         0.660763         1.196285
 O         2.356119         0.557382        -0.971202
 H        -0.702882         0.261572         0.718082
 H        -0.290594         0.913332        -0.798743
 H        -0.591844        -0.922923        -0.562435
 H         2.456945        -1.856454         1.245618
 H         2.632255        -2.017451        -0.592110
 H         5.231158        -0.670768         0.123438
 H         5.181874         0.933535         0.611412
 H         2.453289        -0.754496         3.036764
 H         3.298185         0.884787         3.142283
 H         2.009603         1.647608         0.926207
