19
Iteration:   727charge 0 multiplicity 1
 C        -0.100986        -0.120827        -0.016439
 C         1.364334        -0.074386         0.170898
 C         2.319217        -1.259270         0.170430
 C         3.200996         0.018526         0.050589
 C         4.716736         0.005584         0.553324
 O         4.363729        -0.412691         1.972819
 C         3.080735         0.176899         2.376575
 C         2.336258         0.663446         1.107830
 O         2.355810         0.595169        -1.002922
 H        -0.465133        -0.781745         0.968203
 H        -0.531150         0.826161        -0.013802
 H        -0.335141        -0.679090        -0.920874
 H         2.326684        -1.859138         1.079132
 H         2.407690        -2.069306        -0.593204
 H         5.466028        -0.564590         0.047840
 H         5.019268         1.098902         0.609461
 H         2.418759        -0.662154         2.778153
 H         3.314050         0.980429         3.108287
 H         2.282038         1.704388         1.006319
