19
Iteration:   422
 C        -0.010087        -0.141431         0.004126
 C         1.425356        -0.134259         0.154132
 C         2.402754        -1.212031         0.186422
 C         3.212912         0.078882         0.042058
 C         4.591881        -0.045362         0.610511
 O         4.308501        -0.372651         1.945156
 C         3.086637         0.161028         2.391051
 C         2.362131         0.700632         1.127031
 O         2.301283         0.596290        -1.048086
 H        -0.404144        -0.364259         1.105200
 H        -0.334340         0.780874        -0.418190
 H        -0.376735        -0.962525        -0.576501
 H         2.633783        -2.012991         0.937822
 H         2.224152        -1.834365        -0.725172
 H         5.092703        -1.018216         0.250535
 H         5.056306         0.875666         0.609624
 H         2.543959        -0.740320         2.808907
 H         3.098311         0.885891         3.104802
 H         2.272695         1.760680         0.911554
