19
Iteration:   996charge 0 multiplicity 1
 C        -0.100728        -0.044322        -0.172495
 C         1.357381        -0.075701         0.148452
 C         2.289846        -1.336565         0.015803
 C         3.227680        -0.110437         0.063936
 C         4.606023         0.007056         0.561444
 O         4.479762        -0.244927         1.972784
 C         3.092445         0.111667         2.437256
 C         2.405680         0.653464         1.245565
 O         2.289823         0.558362        -0.868904
 H        -0.693376        -0.104544         0.757986
 H        -0.439000         1.026140        -0.636435
 H        -0.416706        -0.837943        -0.824826
 H         2.274933        -1.904446         0.894205
 H         2.205233        -1.840121        -0.953025
 H         5.273698        -0.832882         0.250614
 H         4.983227         1.009130         0.270627
 H         2.827278        -0.802723         3.021419
 H         3.224064         0.869675         3.246736
 H         2.333626         1.773404         1.264888
