19
Iteration:  4014charge 0 multiplicity 1
 C        -0.118461         0.141922        -0.033697
 C         1.345979        -0.140539         0.182795
 C         2.169061        -1.394652        -0.055661
 C         3.191595        -0.193098         0.119721
 C         4.684043         0.068526         0.587962
 O         4.461353        -0.047952         1.995719
 C         3.112998         0.025579         2.416611
 C         2.418688         0.523237         1.226188
 O         2.382635         0.513695        -0.974572
 H        -0.330685         0.267961        -1.041612
 H        -0.678808        -0.800615         0.199297
 H        -0.732070         0.908234         0.495202
 H         2.138266        -2.330377         0.695821
 H         2.284918        -1.752232        -1.077911
 H         5.395563        -0.777556         0.446071
 H         4.906936         1.104629         0.222415
 H         2.827274        -0.921769         2.643469
 H         2.801012         0.743521         3.257401
 H         2.666393         1.571831         1.049873
