19
Iteration:  4073
 C        -0.104186         0.104876        -0.123288
 C         1.413642        -0.092858         0.200090
 C         2.346493        -1.283265         0.027373
 C         3.168449        -0.070734         0.056021
 C         4.620158         0.018298         0.531664
 O         4.478618        -0.183059         1.988526
 C         3.018923        -0.000538         2.418995
 C         2.368868         0.583866         1.256815
 O         2.290593         0.496044        -0.914640
 H        -0.369020        -0.873294        -0.690102
 H        -0.597031        -0.008052         0.880629
 H        -0.220633         1.067127        -0.591486
 H         2.605339        -2.034997         0.733070
 H         2.211748        -1.673334        -1.028156
 H         5.346275        -0.778323         0.264457
 H         5.187326         0.902747         0.261181
 H         2.707585        -1.026610         2.661012
 H         2.902340         0.454236         3.367853
 H         2.352891         1.684066         1.103040
