19
Iteration:  4560
 C        -0.140418         0.072431        -0.102685
 C         1.354752        -0.042669         0.161405
 C         2.252437        -1.297923        -0.138994
 C         3.184479        -0.070010         0.014561
 C         4.633911         0.063518         0.609072
 O         4.530349        -0.022131         2.100768
 C         3.161845        -0.250523         2.460736
 C         2.380956         0.438243         1.215888
 O         2.265538         0.624707        -0.903000
 H        -0.441606         1.156013         0.080496
 H        -0.259249        -0.189103        -1.169130
 H        -0.710602        -0.450328         0.617213
 H         2.196728        -2.142824         0.609819
 H         2.340504        -1.634145        -1.318810
 H         5.306569        -0.732694         0.394231
 H         4.955990         0.972111         0.133228
 H         2.858748        -1.322244         2.405826
 H         3.121450         0.142053         3.449498
 H         2.387100         1.447789         1.552552
