19
Iteration:  2111charge 0 multiplicity 1
 C        -0.093357         0.096507        -0.238337
 C         1.402193        -0.074802         0.155619
 C         2.187200        -1.397138         0.192888
 C         3.113894        -0.183196         0.192615
 C         4.585082         0.097878         0.423102
 O         4.571592        -0.069998         2.022903
 C         3.135216         0.056705         2.402551
 C         2.411074         0.572943         1.195760
 O         2.318343         0.409796        -0.897717
 H        -0.728319        -0.854945         0.109083
 H        -0.550361         1.009323         0.076558
 H        -0.047746         0.103998        -1.363532
 H         2.128831        -1.920919         1.183837
 H         1.870304        -1.991744        -0.698145
 H         5.335798        -0.604485         0.185915
 H         4.886552         1.162766         0.221701
 H         2.806623        -0.888339         2.738490
 H         3.218228         0.667668         3.301353
 H         2.375486         1.685988         0.909930
