19
Iteration:  4628
 C        -0.158440         0.114599        -0.064392
 C         1.374370        -0.174559         0.159058
 C         2.343361        -1.253288        -0.156420
 C         3.203075         0.011055         0.095466
 C         4.676000        -0.005815         0.558072
 O         4.515629        -0.054707         2.040834
 C         3.070074        -0.245011         2.390991
 C         2.314291         0.441885         1.267035
 O         2.282164         0.655830        -0.827058
 H        -0.301799         0.924697        -0.803795
 H        -0.546437        -0.753005        -0.602996
 H        -0.660940         0.509767         0.853869
 H         2.339287        -2.203225         0.473091
 H         2.469331        -1.548342        -1.281506
 H         5.350471        -0.804264         0.234283
 H         5.129538         1.017966         0.433151
 H         2.945367        -1.334048         2.355072
 H         2.842703         0.211590         3.309178
 H         2.220194         1.536952         1.175022
