19
Iteration:  3338charge 0 multiplicity 1
 C        -0.118851         0.130310         0.022212
 C         1.422243        -0.118161        -0.011929
 C         2.242224        -1.380996         0.019264
 C         3.166825        -0.108755         0.142188
 C         4.654502        -0.148638         0.613179
 O         4.498054         0.066181         2.047258
 C         3.123748         0.054561         2.390831
 C         2.348272         0.595492         1.191054
 O         2.292557         0.450310        -1.025106
 H        -0.500599         0.071030         1.025191
 H        -0.315592         1.009878        -0.440499
 H        -0.611369        -0.635030        -0.625252
 H         2.298816        -1.942478         1.008705
 H         2.337245        -2.140296        -0.827193
 H         5.068127        -1.124145         0.473356
 H         5.161460         0.719960         0.035903
 H         2.846131        -0.910292         2.560957
 H         3.201337         0.530691         3.378544
 H         2.222727         1.714114         1.203332
