19
Iteration:  3699charge 0 multiplicity 1
 C        -0.191966         0.146746        -0.127594
 C         1.418029        -0.072306         0.101901
 C         2.296468        -1.416731         0.005805
 C         3.207436        -0.123038         0.125448
 C         4.640288        -0.046482         0.529802
 O         4.542530        -0.022895         2.042012
 C         3.129949        -0.010864         2.495824
 C         2.312496         0.543850         1.248341
 O         2.242725         0.496032        -0.979402
 H        -0.278954         0.889788        -0.916348
 H        -0.657459        -0.839133        -0.471058
 H        -0.462139         0.734084         0.859718
 H         2.308959        -2.060016         0.879982
 H         2.470001        -1.943614        -0.886398
 H         5.155018        -1.033525         0.194052
 H         5.392959         0.829579         0.230106
 H         2.865882        -0.970062         2.795731
 H         3.096983         0.760793         3.229501
 H         2.214982         1.645171         1.083894
