19
Iteration:  4099charge 0 multiplicity 1
 C        -0.127954        -0.013760        -0.066117
 C         1.427633        -0.065946        -0.015259
 C         2.231211        -1.260609         0.067480
 C         3.201200        -0.081360         0.100119
 C         4.648000         0.015009         0.610016
 O         4.478221        -0.241144         2.006046
 C         3.136658         0.000888         2.433967
 C         2.365984         0.525953         1.177171
 O         2.273046         0.650313        -0.932502
 H        -0.357529        -1.035668        -0.250418
 H        -0.635103         0.253106         0.826059
 H        -0.324306         0.669105        -0.972797
 H         2.136211        -1.996309         0.873630
 H         2.246153        -1.772942        -0.861764
 H         5.419978        -0.651754         0.301198
 H         5.046330         1.032344         0.473104
 H         2.881068        -1.002461         2.999684
 H         2.997964         0.749672         3.247358
 H         2.400492         1.603645         1.049327
