19
Iteration:   457charge 0 multiplicity 1
 C        -0.058242         0.056694        -0.010125
 C         1.445847        -0.115219         0.056191
 C         2.353677        -1.369433         0.010986
 C         3.259512        -0.108916         0.171614
 C         4.644133         0.157972         0.656131
 O         4.371625        -0.390648         1.949236
 C         3.082482         0.261337         2.480269
 C         2.326105         0.536019         1.137281
 O         2.218694         0.480107        -1.032249
 H        -0.480917        -0.315569         1.021334
 H        -0.444302         1.016725        -0.108376
 H        -0.466727        -0.581589        -0.784393
 H         2.460018        -2.139739         0.809748
 H         2.361385        -1.641418        -1.075470
 H         5.472455        -0.355628         0.187106
 H         4.935294         1.152967         0.613200
 H         2.812566        -0.487364         3.252803
 H         3.351429         1.132552         2.960818
 H         2.329784         1.588384         0.970407
