19
Iteration:  1394
 C        -0.037639         0.107900        -0.011100
 C         1.409138        -0.139465         0.101951
 C         2.236280        -1.385230         0.006081
 C         3.210947        -0.167778         0.107352
 C         4.657317        -0.070007         0.488398
 O         4.422573         0.100458         2.051148
 C         2.991646         0.008807         2.352599
 C         2.379150         0.539317         1.174594
 O         2.361886         0.502153        -0.890334
 H        -0.590474        -0.257274         0.974453
 H        -0.327062         1.150453         0.005879
 H        -0.505657        -0.365116        -0.878352
 H         2.393579        -1.998263         0.936422
 H         2.303652        -1.951967        -0.944392
 H         5.174386        -1.045449         0.351446
 H         5.081830         0.821202        -0.053941
 H         2.828062        -0.994162         2.510414
 H         2.853556         0.478668         3.333588
 H         2.500210         1.640630         1.107267
