19
Iteration:  3353charge 0 multiplicity 1
 C        -0.082200         0.067676        -0.075559
 C         1.373677        -0.058022         0.116646
 C         2.253492        -1.355083         0.085499
 C         3.194825        -0.160025         0.119570
 C         4.657342        -0.161805         0.537832
 O         4.532851         0.086239         1.955365
 C         3.028431         0.072406         2.445306
 C         2.313785         0.555321         1.188675
 O         2.342498         0.460221        -0.951857
 H        -0.442371        -0.084256         0.971453
 H        -0.498904         1.204393        -0.228843
 H        -0.523789        -0.585619        -0.842592
 H         2.105723        -2.097415         0.827711
 H         2.210624        -1.659358        -0.976008
 H         5.129153        -1.142160         0.377143
 H         5.394065         0.562930         0.129446
 H         2.815958        -1.071537         2.947309
 H         2.919253         0.835020         3.229167
 H         2.440478         1.610584         1.044471
