19
Iteration:  3774
 C        -0.149126         0.095375        -0.070265
 C         1.369135        -0.124485         0.182028
 C         2.401548        -1.338479         0.073064
 C         3.201889         0.014859         0.033941
 C         4.645956         0.012766         0.554902
 O         4.455877        -0.297738         2.009499
 C         3.106995         0.050546         2.469809
 C         2.311260         0.574449         1.151576
 O         2.265379         0.561323        -1.006987
 H        -0.175095        -0.255782        -1.052013
 H        -0.678499        -0.709072         0.444371
 H        -0.373369         1.196383         0.114596
 H         2.569192        -1.983442         0.920689
 H         2.260897        -1.910901        -0.809975
 H         5.383802        -0.804130         0.311515
 H         5.163626         0.963455         0.468727
 H         2.706165        -0.798571         3.067439
 H         3.196620         0.815777         3.246126
 H         2.175581         1.681499         1.056622
