19
Iteration:  1610charge 0 multiplicity 1
 C        -0.020975         0.180906        -0.157803
 C         1.378861        -0.125340         0.150075
 C         2.244047        -1.423439         0.075397
 C         3.203706        -0.163380         0.129147
 C         4.644627        -0.158113         0.473201
 O         4.473576         0.207944         1.907971
 C         3.069144         0.009644         2.409470
 C         2.237508         0.437058         1.259625
 O         2.376118         0.512681        -0.820428
 H        -0.677497        -0.589583         0.449123
 H        -0.248386         1.174549         0.207765
 H        -0.087861        -0.087491        -1.193246
 H         2.222720        -2.222491         0.828642
 H         2.246588        -1.779989        -0.950738
 H         5.172306        -1.187849         0.255467
 H         5.203329         0.665192         0.106007
 H         2.806558        -1.058365         2.716937
 H         3.044803         0.803439         3.222477
 H         2.065527         1.511101         1.442557
