19
Iteration:   527charge 0 multiplicity 1
 C        -0.054150         0.021617        -0.186615
 C         1.312620        -0.078389         0.174159
 C         2.160614        -1.382819         0.070288
 C         3.115246        -0.098388         0.154276
 C         4.599164        -0.060920         0.590407
 O         4.582662         0.202064         2.027771
 C         3.160892        -0.169402         2.404975
 C         2.394879         0.553864         1.227060
 O         2.311234         0.517735        -1.008736
 H        -0.589904        -0.580771         0.451191
 H        -0.484120         1.092623         0.151785
 H        -0.117136        -0.140174        -1.311595
 H         2.139797        -1.987568         0.984783
 H         2.126517        -1.853106        -0.893560
 H         5.069729        -1.054497         0.484618
 H         5.353182         0.643395         0.053822
 H         3.005437        -1.226149         2.507435
 H         2.957634         0.317774         3.501437
 H         2.391477         1.693724         1.105291
