19
Iteration:  3666charge 0 multiplicity 1
 C        -0.062024         0.081929        -0.072430
 C         1.412135        -0.071326         0.165771
 C         2.255574        -1.417128        -0.010541
 C         3.174329        -0.174660         0.046040
 C         4.543003        -0.148507         0.530104
 O         4.484347         0.126652         2.048212
 C         3.119146        -0.008209         2.416250
 C         2.389405         0.519922         1.196906
 O         2.329504         0.586520        -0.937521
 H        -0.300982         1.040543        -0.533890
 H        -0.624075        -0.703257        -0.641005
 H        -0.728186         0.045785         0.907053
 H         2.199985        -2.025419         0.873693
 H         2.196322        -1.972328        -0.921734
 H         4.966034        -1.164072         0.604460
 H         5.356887         0.585668         0.172775
 H         2.868756        -1.012243         2.637110
 H         3.048798         0.626626         3.277299
 H         2.443970         1.631375         1.140300
