19
Iteration:  2890charge 0 multiplicity 1
 C        -0.032659         0.078459        -0.052514
 C         1.416701        -0.155969         0.166350
 C         2.325977        -1.307397         0.159935
 C         3.175345        -0.009641         0.068864
 C         4.543588         0.008518         0.507844
 O         4.390992        -0.262545         1.969028
 C         3.056213         0.077006         2.472412
 C         2.354123         0.633993         1.166736
 O         2.360636         0.488885        -1.032700
 H        -0.206014         0.114945         1.031911
 H        -0.134134         0.966701        -0.655004
 H        -0.423040        -0.785211        -0.599227
 H         2.416198        -1.734575         1.159383
 H         2.381792        -2.085506        -0.562744
 H         5.145373        -0.786067        -0.045969
 H         5.086387         0.939404         0.249194
 H         2.500610        -0.901629         2.779060
 H         3.228190         0.835624         3.256142
 H         2.327823         1.746847         1.078989
