19
Iteration:  1713
 C        -0.105422         0.014624         0.029964
 C         1.413650        -0.095402         0.054788
 C         2.386376        -1.343210         0.117741
 C         3.231455        -0.011184         0.042463
 C         4.703835        -0.033365         0.618721
 O         4.435262        -0.252296         2.048453
 C         3.027667         0.136282         2.342184
 C         2.318511         0.618727         1.106857
 O         2.259215         0.518515        -1.010297
 H        -0.485988        -0.292065         0.997607
 H        -0.337513         1.094345        -0.107306
 H        -0.522120        -0.644221        -0.779277
 H         2.312779        -1.998803         1.017222
 H         2.302429        -2.019757        -0.762363
 H         5.429566        -0.765890         0.268075
 H         5.164676         0.967736         0.343693
 H         2.592913        -0.845431         2.862725
 H         2.998585         0.921089         3.103981
 H         2.145130         1.719238         1.239106
