19
Iteration:  4648
 C        -0.083553         0.018433        -0.057879
 C         1.391974         0.035948         0.043394
 C         2.327899        -1.344448        -0.108157
 C         3.254616        -0.127871         0.128560
 C         4.623040         0.095226         0.580768
 O         4.495535        -0.119861         1.999055
 C         3.034213        -0.246575         2.398175
 C         2.339547         0.477621         1.293624
 O         2.253698         0.751616        -0.858335
 H        -0.445783         0.797175        -0.791073
 H        -0.582982        -0.890935        -0.394731
 H        -0.391798         0.360040         0.937804
 H         2.390978        -2.210476         0.630368
 H         2.250095        -1.908378        -1.175053
 H         5.242285        -0.726036         0.386858
 H         5.104063         1.002616         0.315991
 H         2.733312        -1.386939         2.413466
 H         3.070956         0.241562         3.329085
 H         2.412798         1.561250         1.310620
