19
Iteration:  4896charge 0 multiplicity 1
 C        -0.106542         0.080643        -0.117895
 C         1.322073        -0.143123         0.073335
 C         2.352166        -1.324091        -0.064652
 C         3.162376        -0.011945         0.083032
 C         4.652003        -0.004132         0.508267
 O         4.493228        -0.003915         1.994291
 C         3.140811        -0.253357         2.453324
 C         2.310713         0.331562         1.311650
 O         2.317837         0.795739        -0.843629
 H        -0.299488         1.259455        -0.210666
 H        -0.596407        -0.472554        -0.967739
 H        -0.641362        -0.328431         0.787246
 H         2.316752        -2.038785         0.736930
 H         2.268924        -1.851222        -1.075603
 H         5.365613        -0.852457         0.241577
 H         5.139349         0.960962         0.251080
 H         2.919230        -1.326228         2.632464
 H         2.900697         0.277722         3.449014
 H         2.074218         1.444384         1.335662
