19
Iteration:  3781charge 0 multiplicity 1
 C        -0.103198         0.089498        -0.099248
 C         1.431496        -0.155391         0.201131
 C         2.361330        -1.347480         0.059080
 C         3.195707         0.019828         0.048191
 C         4.673086         0.015766         0.564060
 O         4.432990        -0.309083         1.983918
 C         3.076320         0.108601         2.434181
 C         2.363432         0.543705         1.201682
 O         2.249846         0.578612        -0.955830
 H        -0.364617        -0.354225        -1.148294
 H        -0.498927        -0.520502         0.734887
 H        -0.484791         1.056131         0.047766
 H         2.556330        -2.029667         0.918834
 H         2.302828        -1.832946        -1.015642
 H         5.153780        -0.862212         0.175795
 H         5.172182         0.961676         0.379126
 H         2.502601        -0.806149         2.906811
 H         3.013073         1.022422         3.135651
 H         2.169404         1.591501         1.060105
