19
Iteration:   469
 C        -0.046544         0.047248        -0.037127
 C         1.389216        -0.173935         0.057793
 C         2.331967        -1.364102        -0.027322
 C         3.182151        -0.091793         0.052869
 C         4.598296         0.123149         0.636181
 O         4.411757        -0.288301         2.011062
 C         3.179356         0.169753         2.452373
 C         2.305567         0.596774         1.197087
 O         2.299725         0.470965        -0.979545
 H        -0.441570        -0.364592         0.936332
 H        -0.075481         1.127040        -0.017644
 H        -0.652617        -0.348462        -0.871999
 H         2.320124        -2.014581         0.865434
 H         2.370007        -2.056740        -0.901711
 H         5.389676        -0.486635         0.288219
 H         4.763179         1.176861         0.577911
 H         2.647098        -0.557863         3.063430
 H         3.308687         1.074806         3.027644
 H         2.131158         1.666955         1.093193
