19
Iteration:  1887
 C        -0.099871         0.179369         0.011228
 C         1.406396        -0.133198         0.237697
 C         2.309589        -1.414541         0.009207
 C         3.194055        -0.166662         0.054637
 C         4.664472        -0.189348         0.611475
 O         4.442404         0.279091         1.998793
 C         3.069896        -0.075340         2.371082
 C         2.403057         0.544453         1.152335
 O         2.266991         0.433947        -0.996291
 H        -0.664393        -0.701037         0.189143
 H        -0.339547         1.196911         0.521072
 H        -0.116128         0.559237        -1.071401
 H         2.242280        -2.165985         0.833023
 H         2.138696        -1.789095        -1.021246
 H         5.179008        -1.265416         0.764020
 H         5.276629         0.608258         0.174791
 H         2.886353        -1.128584         2.504828
 H         2.680076         0.586700         3.111395
 H         2.420008         1.598127         1.135785
