19
Iteration:  2819
 C        -0.063550         0.053176        -0.003778
 C         1.431804        -0.049634         0.170260
 C         2.252972        -1.304325         0.081679
 C         3.145994        -0.104117         0.111224
 C         4.609004        -0.007317         0.501945
 O         4.408281        -0.156500         1.936000
 C         3.044554         0.086967         2.462908
 C         2.322491         0.578525         1.200735
 O         2.419845         0.444037        -0.994070
 H        -0.431356        -0.498589         0.886459
 H        -0.386643         1.079000        -0.121086
 H        -0.240950        -0.386235        -1.029392
 H         2.317450        -2.047623         0.918983
 H         2.226749        -1.781176        -0.911195
 H         5.271269        -0.872360         0.270807
 H         5.307709         0.891563         0.290951
 H         2.807523        -0.802020         2.889465
 H         3.065707         0.975050         3.073295
 H         2.315648         1.635814         0.913355
