19
Iteration:  4300charge 0 multiplicity 1
 C        -0.105936         0.085202        -0.122466
 C         1.337671        -0.057471         0.055090
 C         2.314728        -1.307627        -0.070178
 C         3.233118        -0.125424         0.086549
 C         4.647488         0.013893         0.568283
 O         4.488669        -0.011014         2.003560
 C         3.066881        -0.218099         2.392364
 C         2.281580         0.380160         1.287986
 O         2.371465         0.719606        -0.812965
 H        -0.509289         1.120502         0.040560
 H        -0.503130        -0.463991        -0.973713
 H        -0.374141        -0.349737         0.796994
 H         2.203547        -2.145684         0.601713
 H         2.090647        -1.719115        -1.115523
 H         5.247930        -0.829369         0.151619
 H         5.031902         0.937737         0.287471
 H         2.921726        -1.298114         2.628264
 H         2.975841         0.515623         3.300148
 H         2.275572         1.493190         1.417632
