19
Iteration:  4540charge 0 multiplicity 1
 C        -0.021119         0.096359        -0.071545
 C         1.436611        -0.086792         0.088493
 C         2.279232        -1.390985        -0.050557
 C         3.192299         0.004646         0.119603
 C         4.628091         0.020330         0.535051
 O         4.483940        -0.071104         1.978697
 C         3.063086        -0.193995         2.435558
 C         2.310251         0.397097         1.266154
 O         2.245483         0.721337        -0.894365
 H        -0.430907         0.970563         0.535843
 H        -0.215656         0.097074        -1.155677
 H        -0.538827        -0.806510         0.280321
 H         2.341865        -2.062182         0.795433
 H         2.245193        -1.895133        -1.078838
 H         5.355765        -0.740948         0.184971
 H         5.124915         1.041884         0.284495
 H         2.779199        -1.182214         2.755762
 H         2.951610         0.375604         3.312085
 H         2.476687         1.483345         1.416469
