19
Iteration:  1856
 C        -0.107017         0.170801         0.009392
 C         1.397766        -0.095870         0.018689
 C         2.290393        -1.464722         0.057929
 C         3.167593        -0.156357         0.103459
 C         4.661890        -0.106331         0.506116
 O         4.485345         0.133261         2.031634
 C         3.043984         0.009079         2.415052
 C         2.339794         0.504399         1.176234
 O         2.360296         0.472688        -0.967918
 H        -0.559077        -0.615517         0.540434
 H        -0.333167         1.128598         0.640734
 H        -0.614246         0.308369        -1.003278
 H         2.000234        -2.080357         0.948535
 H         2.223531        -2.149933        -0.818342
 H         5.358725        -0.875859         0.562555
 H         5.140130         0.743619         0.031151
 H         2.970062        -0.986747         2.880374
 H         2.856917         0.734149         3.188987
 H         2.322642         1.607216         1.114557
