19
Iteration:  4500
 C        -0.084235         0.018210        -0.026451
 C         1.363329        -0.060402         0.166513
 C         2.326928        -1.305205        -0.046640
 C         3.169492         0.019659         0.061014
 C         4.632056         0.105291         0.604195
 O         4.485664        -0.265498         1.988766
 C         3.061215        -0.152340         2.447157
 C         2.369574         0.537680         1.279151
 O         2.302458         0.649228        -1.022207
 H        -0.575734         0.719705         0.599665
 H        -0.283731         0.375638        -1.035587
 H        -0.531956        -1.014053         0.006717
 H         2.314950        -2.143518         0.657863
 H         2.440917        -1.650052        -1.004722
 H         5.233791        -0.682271         0.099721
 H         5.111035         1.070614         0.455023
 H         2.816952        -1.148447         2.892889
 H         3.141937         0.634162         3.315534
 H         2.086826         1.581733         1.280642
