19
Iteration:  2061
 C        -0.119257        -0.041652         0.050950
 C         1.410201        -0.168905         0.107124
 C         2.390299        -1.308971         0.055947
 C         3.167658        -0.049832         0.067437
 C         4.664925        -0.092298         0.633692
 O         4.457000        -0.273808         2.018776
 C         2.972377         0.246530         2.382837
 C         2.393920         0.731900         1.101071
 O         2.265599         0.523540        -1.028877
 H        -0.504429        -0.449633         0.912526
 H        -0.292229         1.070946         0.091340
 H        -0.509042        -0.658256        -0.775882
 H         2.442778        -2.031622         0.840903
 H         2.496723        -1.664441        -0.966233
 H         5.259714        -0.956826         0.227818
 H         5.278701         0.766295         0.558180
 H         2.726393        -0.726778         2.898109
 H         3.084081         0.924865         3.230215
 H         2.314701         1.762349         0.903631
