19
Iteration:  4131charge 0 multiplicity 1
 C        -0.071292         0.017087        -0.033169
 C         1.377026        -0.145520         0.177794
 C         2.379741        -1.321182         0.018591
 C         3.160704        -0.003129         0.120820
 C         4.574428         0.047781         0.516431
 O         4.428867        -0.328503         1.946612
 C         3.016155         0.073893         2.462034
 C         2.346855         0.596883         1.220348
 O         2.403586         0.617777        -0.949636
 H        -0.576045        -0.948533         0.001404
 H        -0.644227         0.692502         0.582097
 H        -0.166787         0.315254        -1.182720
 H         2.400515        -2.224966         0.637224
 H         2.374278        -1.578534        -0.982275
 H         5.163807        -0.745960         0.278386
 H         4.877491         1.080460         0.437848
 H         2.848350        -1.033060         2.722461
 H         3.201650         0.786563         3.188088
 H         2.224604         1.672731         1.127309
