19
Iteration:  4721charge 0 multiplicity 1
 C        -0.008132         0.001361        -0.053287
 C         1.373103        -0.122126         0.173924
 C         2.373105        -1.284195         0.016140
 C         3.249433         0.090531        -0.000457
 C         4.639296         0.180987         0.571648
 O         4.376148        -0.392447         1.961743
 C         3.087943        -0.123083         2.463055
 C         2.315829         0.452124         1.237342
 O         2.220622         0.719940        -0.967264
 H        -0.334829         1.109366        -0.194272
 H        -0.260280        -0.514000        -1.017370
 H        -0.535075        -0.337518         0.842611
 H         2.397267        -1.992541         0.773672
 H         2.282043        -1.892401        -0.893414
 H         5.371704        -0.591460         0.071561
 H         5.100898         1.217581         0.684663
 H         2.909495        -1.049186         2.952548
 H         3.205345         0.750339         3.208151
 H         2.365324         1.546291         1.308869
