19
Iteration:  1555
 C        -0.114045         0.036983         0.024955
 C         1.378507        -0.072171         0.057233
 C         2.177098        -1.388293        -0.035848
 C         3.279128        -0.172476         0.140211
 C         4.725532        -0.030874         0.576345
 O         4.460098         0.053828         2.001714
 C         2.990664         0.023509         2.420164
 C         2.371225         0.578608         1.210960
 O         2.359271         0.502570        -0.980479
 H        -0.474914         0.009799         1.067719
 H        -0.233842         0.924017        -0.506821
 H        -0.523985        -0.705060        -0.631683
 H         2.029194        -2.092723         0.791182
 H         2.113010        -1.928354        -0.974748
 H         5.262749        -0.997684         0.265517
 H         5.271180         0.861760         0.319390
 H         2.511165        -1.011755         2.642431
 H         3.051775         0.535856         3.407631
 H         2.613131         1.642359         1.102626
