19
Iteration:  1286
 C        -0.204795        -0.054833        -0.050458
 C         1.386436        -0.053338         0.086423
 C         2.264361        -1.290894         0.094259
 C         3.184210        -0.130413         0.082235
 C         4.623975        -0.110845         0.521876
 O         4.480249        -0.080003         2.044352
 C         3.117925         0.100130         2.407477
 C         2.328452         0.582538         1.173038
 O         2.439344         0.587025        -0.968240
 H        -0.708650        -0.819280         0.604288
 H        -0.449540         0.992450         0.115100
 H        -0.460860        -0.342245        -1.064637
 H         2.105100        -1.890722         1.029671
 H         2.192213        -2.024325        -0.717933
 H         5.242656        -0.980618         0.283255
 H         5.035639         0.864673         0.127026
 H         2.794941        -1.013662         2.717725
 H         3.188980         0.726965         3.331239
 H         2.369616         1.709676         1.129827
