19
Iteration:   777charge 0 multiplicity 1
 C        -0.142211         0.099557         0.013632
 C         1.403981        -0.194936         0.211631
 C         2.287211        -1.394163         0.020356
 C         3.251153        -0.145428         0.013738
 C         4.656370         0.048754         0.589246
 O         4.500292         0.002103         2.020281
 C         2.959950        -0.036726         2.374454
 C         2.363216         0.561725         1.159044
 O         2.350169         0.537227        -0.944613
 H        -0.680834        -0.192766         0.780660
 H        -0.229751         1.292310        -0.086859
 H        -0.588193        -0.337756        -0.880033
 H         2.437731        -2.247016         0.705282
 H         2.266623        -1.946418        -0.924061
 H         5.193665        -0.880932         0.172773
 H         5.211276         0.869698         0.114336
 H         2.535263        -0.963521         2.595566
 H         3.019268         0.624185         3.255207
 H         2.299783         1.726344         1.028348
