19
Iteration:  1139
 C        -0.067983         0.004956        -0.102077
 C         1.400256        -0.089465         0.210248
 C         2.269253        -1.277247         0.122503
 C         3.147360        -0.043818         0.125428
 C         4.593369        -0.187268         0.507185
 O         4.457612         0.018961         1.953934
 C         3.091226        -0.013851         2.434399
 C         2.279357         0.574546         1.233217
 O         2.447252         0.560803        -1.013729
 H        -0.681433        -0.346181         0.760532
 H        -0.447241         0.958448        -0.281977
 H        -0.342568        -0.631592        -0.962517
 H         2.386046        -1.850265         0.998531
 H         2.297536        -1.707543        -0.897528
 H         5.057592        -1.185155         0.258722
 H         5.116536         0.667867         0.048282
 H         2.863145        -1.119615         2.585916
 H         2.935331         0.520934         3.405711
 H         2.212684         1.649006         1.222674
