19
Iteration:  4833charge 0 multiplicity 1
 C        -0.098145         0.118438        -0.030630
 C         1.438722        -0.122858         0.027424
 C         2.229037        -1.362414        -0.078469
 C         3.131592        -0.104458         0.126637
 C         4.597438         0.075428         0.591999
 O         4.551734        -0.032904         2.036906
 C         3.101427        -0.207885         2.433112
 C         2.343806         0.392118         1.201541
 O         2.300355         0.725122        -0.916193
 H        -0.460431         0.807300         0.788199
 H        -0.468940         0.514891        -0.998379
 H        -0.351497        -0.974549         0.011247
 H         2.187253        -1.947206         0.833372
 H         2.341103        -1.904046        -1.026901
 H         5.289359        -0.751477         0.265821
 H         5.013098         1.127238         0.264230
 H         3.036448        -1.279919         2.450816
 H         2.896135         0.311211         3.345440
 H         2.382930         1.406204         1.428937
