19
Iteration:  2904charge 0 multiplicity 1
 C        -0.135737         0.042775        -0.104417
 C         1.375119        -0.091910         0.094444
 C         2.331076        -1.371211         0.267598
 C         3.182156        -0.062825         0.123258
 C         4.636441        -0.000956         0.513589
 O         4.457927        -0.265261         1.913423
 C         3.081902         0.113900         2.365259
 C         2.334558         0.628255         1.186289
 O         2.392388         0.546958        -0.950510
 H        -0.881090         0.069550         0.747435
 H        -0.423401         1.004850        -0.468332
 H        -0.579275        -0.756274        -0.825254
 H         2.224366        -1.963814         1.260872
 H         2.387958        -1.967046        -0.673138
 H         5.306396        -0.853780         0.152310
 H         5.064275         0.943723         0.346356
 H         2.623482        -0.884651         2.945288
 H         3.147060         0.897099         3.196859
 H         2.289372         1.739844         1.106992
