19
Iteration:  1536
 C        -0.019103         0.097230        -0.031573
 C         1.428853        -0.108393         0.149482
 C         2.311011        -1.367231         0.058863
 C         3.217606        -0.142653         0.047726
 C         4.498534        -0.035060         0.526186
 O         4.427200        -0.082452         2.025808
 C         3.075376         0.057143         2.402056
 C         2.304755         0.529255         1.122533
 O         2.389258         0.548780        -0.949669
 H        -0.304740         0.091901         1.103637
 H        -0.376215         1.023712        -0.437095
 H        -0.319904        -0.823110        -0.476267
 H         2.432383        -1.989046         1.015188
 H         2.355811        -1.985080        -0.884150
 H         5.176709        -0.880647         0.317196
 H         4.758046         0.970611         0.226403
 H         2.638723        -0.873039         2.934098
 H         2.768098         0.834656         3.203535
 H         2.430427         1.642575         1.024189
