19
Iteration:  3962
 C        -0.155022         0.106100        -0.131419
 C         1.376439        -0.111824         0.092919
 C         2.379685        -1.313122         0.093410
 C         3.168494        -0.031087         0.130994
 C         4.635319        -0.121105         0.524529
 O         4.493959        -0.018453         1.951241
 C         3.131176        -0.089095         2.472410
 C         2.292744         0.647645         1.252511
 O         2.347568         0.501077        -0.961630
 H        -0.560978         0.418913        -1.097313
 H        -0.793824        -0.832248         0.045858
 H        -0.528678         0.760834         0.630561
 H         2.348863        -1.956391         0.932434
 H         2.373303        -1.913267        -0.805260
 H         4.985348        -1.153918         0.228410
 H         5.349684         0.627686         0.228554
 H         2.663747        -1.138951         2.731850
 H         3.066552         0.500084         3.383494
 H         2.116730         1.759266         1.214095
