19
Iteration:  4982
 C        -0.124407         0.029632         0.005899
 C         1.397556        -0.131302         0.076564
 C         2.442094        -1.312290        -0.102096
 C         3.133090         0.068198         0.129619
 C         4.619687         0.206457         0.648043
 O         4.517870        -0.398906         1.932182
 C         3.051641        -0.150243         2.421033
 C         2.303976         0.565552         1.242671
 O         2.275997         0.665986        -0.936124
 H        -0.157667         0.955120        -0.535046
 H        -0.380757        -0.740954        -0.622506
 H        -0.473427         0.279758         0.942599
 H         2.368196        -2.086973         0.679677
 H         2.401109        -1.823160        -1.163207
 H         5.289662        -0.437780         0.097416
 H         4.970616         1.211363         0.569163
 H         2.646457        -1.170333         2.690794
 H         3.148589         0.378877         3.462329
 H         2.026443         1.681392         1.431449
