19
Iteration:  1408charge 0 multiplicity 1
 C        -0.083757         0.070640        -0.010370
 C         1.415725        -0.096320         0.168815
 C         2.317171        -1.389590         0.050510
 C         3.230059        -0.172802         0.020590
 C         4.694038        -0.120173         0.660041
 O         4.482883         0.031720         1.985971
 C         2.997560         0.030870         2.411476
 C         2.377516         0.503110         1.091316
 O         2.220455         0.600458        -0.966067
 H        -0.504510        -0.527637         0.731213
 H        -0.296373         1.208247         0.014313
 H        -0.356885        -0.328222        -1.005806
 H         2.266367        -2.048501         0.926592
 H         2.147500        -1.948109        -0.878353
 H         5.402188        -0.908651         0.458389
 H         5.293893         0.807307         0.392553
 H         2.567944        -0.900775         2.815328
 H         2.921544         0.851057         3.123696
 H         2.348939         1.612707         0.945989
