19
Iteration:  2030charge 0 multiplicity 1
 C         0.020284        -0.051155         0.147961
 C         1.413228        -0.096772         0.089649
 C         2.314639        -1.313179         0.095421
 C         3.245641        -0.100764        -0.021391
 C         4.635210         0.054197         0.648644
 O         4.348599        -0.327612         1.987825
 C         2.954002         0.193948         2.420808
 C         2.451489         0.615922         1.074204
 O         2.295600         0.558510        -1.073537
 H        -0.363151        -0.047724         1.170286
 H        -0.530517         0.850886        -0.392546
 H        -0.576415        -0.896754        -0.307538
 H         2.273909        -1.983094         0.978245
 H         2.272009        -1.895600        -0.852160
 H         5.524240        -0.706046         0.434109
 H         4.953550         1.082417         0.673942
 H         2.633105        -0.747365         2.948458
 H         3.057567         1.180648         2.939180
 H         2.458087         1.672159         0.858697
