19
Iteration:    55
 C        -0.068082         0.256946        -0.123545
 C         1.374658        -0.129614         0.065124
 C         2.251157        -1.489616         0.023573
 C         3.196760        -0.176759         0.132314
 C         4.644694         0.065194         0.538674
 O         4.484495         0.215910         2.000525
 C         3.107933        -0.067352         2.466240
 C         2.362887         0.376896         1.221313
 O         2.281372         0.408029        -0.914138
 H        -0.717301        -0.107981         0.631252
 H        -0.173766         1.296092        -0.146958
 H        -0.449235        -0.052229        -1.047962
 H         2.201114        -2.120471         0.911313
 H         2.300202        -2.185200        -0.817120
 H         5.151545        -0.860504         0.386185
 H         5.073955         1.032740         0.145447
 H         3.004257        -1.140394         2.668175
 H         2.868422         0.531384         3.347980
 H         2.471939         1.436096         1.208775
