19
Iteration:   387charge 0 multiplicity 1
 C        -0.121024        -0.118667        -0.087567
 C         1.374541        -0.024766         0.104044
 C         2.305623        -1.293475         0.199767
 C         3.184854        -0.049272         0.141540
 C         4.651060        -0.035883         0.539678
 O         4.469451        -0.190785         1.939297
 C         3.046712         0.078801         2.400660
 C         2.332778         0.654734         1.147676
 O         2.382840         0.537576        -0.964822
 H        -0.480325        -0.428957         0.895543
 H        -0.605722         0.948070        -0.178246
 H        -0.427886        -0.827652        -0.907286
 H         2.193554        -1.919924         1.094810
 H         2.193696        -1.638553        -0.801765
 H         5.373855        -0.796960         0.129057
 H         5.194647         0.859530         0.262944
 H         2.586822        -0.870829         2.590778
 H         3.034569         0.636596         3.340562
 H         2.433650         1.789673         1.182108
