19
Iteration:   249
 C        -0.104518        -0.040471        -0.124608
 C         1.360696        -0.074607         0.042638
 C         2.371351        -1.336049         0.004931
 C         3.187944        -0.112464         0.046314
 C         4.608510        -0.159908         0.508260
 O         4.424691        -0.019791         1.986417
 C         3.112914         0.146945         2.500753
 C         2.336527         0.504573         1.274277
 O         2.323499         0.601235        -0.883172
 H        -0.413267        -0.200960         1.027168
 H        -0.457853         0.910724        -0.215850
 H        -0.600068        -0.705190        -0.740556
 H         2.339371        -2.018465         0.873488
 H         2.333072        -1.709672        -1.040633
 H         5.105822        -1.132226         0.433687
 H         5.422895         0.415955         0.057851
 H         2.911802        -0.748543         3.190383
 H         3.122878         1.043505         3.090823
 H         2.206356         1.548796         1.190683
