19
Iteration:  1902
 C        -0.101691         0.177048        -0.059798
 C         1.367358        -0.087463         0.111009
 C         2.235845        -1.415181         0.068293
 C         3.232884        -0.211060         0.075281
 C         4.673229        -0.178811         0.519275
 O         4.452559         0.276926         2.008521
 C         3.031152         0.012229         2.402785
 C         2.371616         0.447745         1.169434
 O         2.335929         0.499842        -0.907549
 H        -0.707361        -0.693768         0.283352
 H        -0.575285         0.893379         0.635884
 H        -0.431029         0.333858        -1.087595
 H         2.412031        -2.194078         0.860517
 H         2.227712        -2.024537        -0.869741
 H         5.060206        -1.176460         0.420636
 H         5.450608         0.449606         0.061263
 H         3.056199        -1.085761         2.670956
 H         3.144299         0.391471         3.451278
 H         2.445048         1.596498         1.074845
