19
Iteration:  3391charge 0 multiplicity 1
 C        -0.058109         0.114612        -0.197942
 C         1.368391        -0.072824         0.152245
 C         2.173339        -1.413487         0.183051
 C         3.154808        -0.163199         0.126426
 C         4.615167        -0.080322         0.537030
 O         4.569257         0.026548         1.979568
 C         3.121826         0.081774         2.440516
 C         2.339075         0.572414         1.191236
 O         2.313924         0.465609        -0.952944
 H        -0.598439        -0.783656         0.190684
 H        -0.407242         1.011618         0.194045
 H        -0.270548         0.036832        -1.297513
 H         2.213151        -2.039078         1.120602
 H         2.000125        -1.995272        -0.749778
 H         5.221255        -0.995847         0.285801
 H         5.034355         0.774994        -0.027808
 H         3.005067        -1.038342         2.887985
 H         3.141821         0.814370         3.275735
 H         2.382495         1.713509         1.058660
