19
Iteration:  3412charge 0 multiplicity 1
 C        -0.169410         0.161885        -0.209727
 C         1.342317        -0.120291         0.082932
 C         2.291798        -1.352899         0.219390
 C         3.123678        -0.115957         0.142125
 C         4.691336        -0.007787         0.471521
 O         4.509005        -0.027935         1.963383
 C         3.127795         0.083525         2.472094
 C         2.386792         0.609477         1.258761
 O         2.307032         0.311982        -0.967307
 H        -0.806771        -0.717912         0.105396
 H        -0.438905         1.017385         0.438172
 H        -0.380977         0.531565        -1.275786
 H         1.862535        -1.876128         1.078629
 H         2.476482        -1.942197        -0.661196
 H         5.293000        -0.942596         0.283659
 H         5.184401         0.889233         0.177091
 H         2.846059        -1.064896         2.776420
 H         3.259169         0.592397         3.437538
 H         2.541830         1.706246         1.009364
