19
Iteration:   142charge 0 multiplicity 1
 C        -0.131096        -0.011151        -0.086379
 C         1.402636        -0.118918         0.106524
 C         2.306661        -1.391283        -0.068829
 C         3.217016        -0.143984         0.074789
 C         4.610197        -0.091567         0.583400
 O         4.489873        -0.131580         2.080307
 C         3.113994         0.208893         2.513930
 C         2.415365         0.581435         1.142067
 O         2.214227         0.576648        -0.944321
 H        -0.572589        -0.671807         0.773480
 H        -0.311135         1.015558        -0.011755
 H        -0.387130        -0.394594        -1.039556
 H         2.441604        -2.095126         0.695396
 H         2.207983        -1.744655        -1.096061
 H         5.236880        -0.878514         0.300865
 H         4.940481         0.944186         0.395093
 H         2.735284        -0.632147         3.065515
 H         3.211802         1.144391         3.094019
 H         2.436664         1.625340         1.016201
