19
Iteration:  3848charge 0 multiplicity 1
 C        -0.091372         0.047248        -0.073213
 C         1.398069        -0.028509         0.145055
 C         2.330429        -1.350856         0.118486
 C         3.236836        -0.091347         0.105677
 C         4.655821         0.071115         0.561507
 O         4.433096        -0.273781         1.978765
 C         3.021664         0.001356         2.344245
 C         2.349727         0.628280         1.196785
 O         2.293308         0.579494        -0.985415
 H        -0.402236        -1.028299        -0.293503
 H        -0.408499         0.252242         0.950477
 H        -0.413738         0.868497        -0.747196
 H         2.428310        -2.096577         0.959967
 H         2.358344        -1.897261        -0.908246
 H         5.417421        -0.659157         0.202258
 H         4.977536         1.158175         0.544182
 H         2.606832        -1.090208         2.475445
 H         3.117187         0.404614         3.413356
 H         2.304990         1.706744         1.275252
