19
Iteration:  4352charge 0 multiplicity 1
 C        -0.106082         0.126939        -0.055705
 C         1.331058        -0.077746         0.061647
 C         2.362373        -1.360403        -0.081477
 C         3.247398        -0.031339         0.108847
 C         4.656175         0.101621         0.565593
 O         4.440426        -0.131762         1.966486
 C         3.031966        -0.206858         2.378014
 C         2.326419         0.430766         1.267517
 O         2.325345         0.671468        -0.792848
 H        -0.259576         1.019282        -0.766047
 H        -0.394534        -0.837239        -0.613130
 H        -0.743093         0.338211         0.858807
 H         2.464302        -2.038762         0.712644
 H         2.561351        -1.966725        -1.020631
 H         5.188834        -0.671143         0.013558
 H         5.212918         1.060392         0.355899
 H         2.791563        -1.276366         2.592815
 H         2.992301         0.264904         3.371188
 H         2.165253         1.518970         1.341463
