19
Iteration:   573charge 0 multiplicity 1
 C         0.013688         0.116189        -0.079616
 C         1.397069        -0.183715         0.072682
 C         2.231408        -1.425638        -0.169550
 C         3.181745        -0.237411         0.068512
 C         4.493812        -0.175911         0.618844
 O         4.566027         0.289200         1.971878
 C         3.122045         0.066058         2.482400
 C         2.248693         0.399187         1.338681
 O         2.319101         0.566957        -0.847436
 H        -0.622607        -0.219645         0.827721
 H        -0.035624         1.215185        -0.078826
 H        -0.315441        -0.196528        -1.053345
 H         2.256763        -2.192516         0.614970
 H         2.219561        -1.759290        -1.208253
 H         4.968325        -1.114733         0.296653
 H         5.108856         0.514277        -0.175633
 H         3.040312        -1.013071         2.841972
 H         2.992611         0.740580         3.357935
 H         2.388632         1.469155         1.161394
