19
Iteration:  1082charge 0 multiplicity 1
 C        -0.094440         0.248419        -0.005706
 C         1.402496        -0.134328         0.043991
 C         2.219182        -1.453505        -0.066787
 C         3.191122        -0.223507         0.128435
 C         4.743786        -0.040302         0.657837
 O         4.448716         0.216632         2.022624
 C         3.101045        -0.055224         2.510360
 C         2.346635         0.415740         1.159675
 O         2.254323         0.487245        -1.034047
 H        -0.626718        -0.524943         0.459092
 H        -0.239665         1.264953         0.557292
 H        -0.414105         0.364335        -1.012434
 H         2.255898        -2.259240         0.774146
 H         2.196507        -2.024230        -1.050911
 H         5.253549        -1.031306         0.435980
 H         5.317653         0.703995         0.076256
 H         3.130851        -1.146771         2.910387
 H         2.978849         0.589496         3.413525
 H         2.401116         1.558599         1.035722
