19
Iteration:  3453
 C        -0.056500         0.099411        -0.067398
 C         1.428142        -0.145453         0.154068
 C         2.186459        -1.419363         0.124422
 C         3.258762        -0.205399         0.076626
 C         4.648505         0.034051         0.506708
 O         4.379506        -0.123400         1.920954
 C         3.074484         0.210516         2.518195
 C         2.408996         0.636141         1.122387
 O         2.337264         0.408627        -0.957298
 H        -0.617577        -0.812655         0.257334
 H        -0.456321         0.884013         0.714368
 H        -0.246697         0.550479        -1.063399
 H         2.276948        -2.104520         0.998781
 H         2.001673        -2.006971        -0.730416
 H         5.351991        -0.834306         0.356276
 H         4.991017         1.033967         0.142220
 H         2.647129        -0.605156         2.942416
 H         3.087593         0.950918         3.331832
 H         2.535230         1.691120         0.959377
