19
Iteration:  3349
 C        -0.090932         0.100162        -0.056990
 C         1.370833        -0.052341         0.061076
 C         2.254901        -1.340540         0.070996
 C         3.215382        -0.171755         0.117015
 C         4.651034        -0.155062         0.566375
 O         4.546377         0.086980         1.960233
 C         3.043966         0.058196         2.433436
 C         2.295504         0.556534         1.237002
 O         2.319748         0.437821        -0.967231
 H        -0.417939        -0.096577         0.948784
 H        -0.396582         1.055345        -0.248523
 H        -0.591930        -0.661478        -0.683914
 H         2.092099        -2.120477         0.867890
 H         2.342310        -1.735579        -0.997977
 H         5.069061        -1.126165         0.313720
 H         5.463000         0.581168         0.267625
 H         2.745448        -0.832941         2.728119
 H         2.963630         0.781095         3.251938
 H         2.411562         1.658176         1.067968
