19
Iteration:  2218charge 0 multiplicity 1
 C        -0.061627        -0.013350         0.050700
 C         1.414051        -0.015700         0.008182
 C         2.237813        -1.339965         0.025088
 C         3.202703        -0.229321         0.082467
 C         4.738504        -0.225775         0.645344
 O         4.439307         0.124372         2.057050
 C         3.058558         0.082769         2.379549
 C         2.370636         0.568255         1.146215
 O         2.256898         0.558373        -1.025269
 H        -0.331657         0.151000         1.133752
 H        -0.544961         0.831424        -0.440568
 H        -0.476398        -0.858717        -0.377723
 H         2.132011        -1.911375         0.948293
 H         2.326702        -1.912643        -0.884065
 H         5.342412        -1.290284         0.551576
 H         5.327952         0.497041         0.189786
 H         2.585537        -0.965002         2.552642
 H         2.922258         0.768476         3.356881
 H         2.473063         1.690784         0.958222
