19
Iteration:   175charge 0 multiplicity 1
 C        -0.024194         0.056700        -0.035009
 C         1.450458        -0.199992         0.118695
 C         2.344910        -1.365127         0.288705
 C         3.166588         0.020981         0.116789
 C         4.592861         0.122401         0.528233
 O         4.424197        -0.342418         1.897507
 C         3.005218         0.070895         2.305695
 C         2.263702         0.677776         1.156734
 O         2.394451         0.472303        -0.985159
 H        -0.594184        -0.463451         0.885374
 H        -0.187870         1.114744         0.100561
 H        -0.522247        -0.150946        -0.973848
 H         2.482609        -1.933423         1.136551
 H         2.343519        -2.023534        -0.586125
 H         5.345950        -0.418002         0.020726
 H         4.910758         1.202504         0.622861
 H         2.612836        -0.725047         2.893040
 H         3.233888         0.831025         3.059182
 H         2.107703         1.708678         1.030650
