19
Iteration:  3182charge 0 multiplicity 1
 C        -0.037818         0.033079         0.039726
 C         1.432818        -0.112462         0.046903
 C         2.272108        -1.381823         0.127396
 C         3.174881        -0.144632         0.134783
 C         4.669489        -0.006063         0.529266
 O         4.472934        -0.281109         2.048433
 C         2.988138         0.218460         2.368615
 C         2.376290         0.672885         1.139167
 O         2.279085         0.527893        -1.043642
 H        -0.478942        -0.790377         0.564900
 H        -0.293422         1.019870         0.495200
 H        -0.459594        -0.074126        -0.895525
 H         2.334018        -1.964202         1.125284
 H         2.226760        -1.876801        -0.857959
 H         5.353945        -0.825224         0.110326
 H         5.050675         1.034695         0.275847
 H         2.640764        -0.764258         2.832865
 H         3.139194         0.987417         3.190464
 H         2.367242         1.781496         1.000149
