19
Iteration:  2882
 C         0.067222         0.061653         0.008286
 C         1.444432        -0.100550         0.162780
 C         2.335849        -1.305202         0.112713
 C         3.169702        -0.011590        -0.011409
 C         4.560123         0.018127         0.539743
 O         4.376356        -0.265089         1.983566
 C         3.036341         0.077395         2.454872
 C         2.320663         0.655467         1.169972
 O         2.322264         0.426911        -1.043854
 H        -0.464187         0.390411         0.977501
 H        -0.097235         0.980305        -0.491647
 H        -0.530697        -0.803971        -0.494683
 H         2.598187        -1.826991         1.120352
 H         2.256872        -1.954127        -0.793539
 H         5.202004        -0.851755         0.144334
 H         5.024609         0.939513         0.349321
 H         2.635698        -0.987543         2.957977
 H         3.025365         0.851796         3.297257
 H         2.381432         1.758927         1.198782
