19
Iteration:  1127charge 0 multiplicity 1
 C        -0.111862         0.021422        -0.068092
 C         1.341995        -0.116220         0.238073
 C         2.244515        -1.332464         0.041651
 C         3.203262        -0.129733         0.042397
 C         4.611266        -0.163714         0.542726
 O         4.442685         0.115993         1.955299
 C         3.051968        -0.010099         2.375280
 C         2.314673         0.556146         1.256483
 O         2.499004         0.573871        -0.950357
 H        -0.573058        -0.496099         0.733694
 H        -0.310280         1.089233        -0.013925
 H        -0.365372        -0.404410        -1.013026
 H         2.143427        -2.186202         0.701418
 H         2.067266        -1.851433        -0.916358
 H         5.063272        -1.173813         0.319038
 H         5.351983         0.580433         0.209792
 H         2.707916        -1.000257         2.741628
 H         3.148084         0.693515         3.224406
 H         2.259298         1.655515         1.344130
