19
Iteration:  1177
 C        -0.141325         0.028079        -0.176218
 C         1.295283        -0.083469         0.170126
 C         2.266737        -1.331483         0.087247
 C         3.275473        -0.141760         0.130601
 C         4.708492         0.046887         0.559708
 O         4.488488        -0.231609         1.977378
 C         3.120847         0.092325         2.465188
 C         2.373406         0.592399         1.167810
 O         2.225403         0.542277        -0.945973
 H        -0.781289        -0.054945         0.797214
 H        -0.177792         1.059725        -0.809126
 H        -0.318988        -0.824350        -0.868651
 H         2.352125        -1.976541         1.045131
 H         2.284936        -1.939240        -0.845368
 H         5.608818        -0.576568         0.398117
 H         5.004237         1.102361         0.340377
 H         2.683683        -0.936352         2.894675
 H         3.191967         0.857444         3.267985
 H         2.364037         1.714090         0.977027
