19
Iteration:  3933
 C        -0.033549         0.055221        -0.105292
 C         1.397869        -0.064378         0.240742
 C         2.189270        -1.361584         0.030342
 C         3.191987        -0.176605         0.032306
 C         4.610406        -0.020852         0.579537
 O         4.483570        -0.031926         1.984800
 C         3.082361        -0.041961         2.441252
 C         2.392115         0.584899         1.187652
 O         2.327909         0.591053        -0.925363
 H        -0.186321        -0.020513        -1.249793
 H        -0.534623        -0.891001         0.223248
 H        -0.544122         0.927108         0.228295
 H         2.191769        -2.021656         0.899010
 H         1.896167        -1.964827        -0.886542
 H         5.259469        -0.809836         0.240924
 H         5.238152         0.830068         0.248743
 H         2.729418        -1.076706         2.725479
 H         3.006437         0.574876         3.304681
 H         2.422019         1.653921         0.993620
