19
Iteration:  2495
 C        -0.059787         0.032278        -0.054279
 C         1.432499        -0.055294         0.141121
 C         2.288796        -1.346519         0.109780
 C         3.171311        -0.102140         0.110214
 C         4.553088        -0.169170         0.520770
 O         4.458345        -0.045817         1.938165
 C         3.043193         0.113248         2.449799
 C         2.334193         0.611752         1.198654
 O         2.398540         0.513802        -0.989068
 H        -0.534580        -0.595321         0.662253
 H        -0.531366         1.017816         0.072162
 H        -0.461004        -0.310981        -1.024397
 H         2.236913        -1.949639         1.087647
 H         2.301871        -2.015600        -0.755973
 H         5.286415        -1.074004         0.432895
 H         5.112533         0.606699         0.008436
 H         2.672413        -0.895234         2.647851
 H         3.196112         0.804764         3.352480
 H         2.278675         1.755858         1.167387
