19
Iteration:  1297charge 0 multiplicity 1
 C        -0.184052         0.026669        -0.114452
 C         1.287385        -0.170376         0.089920
 C         2.213489        -1.409555         0.075466
 C         3.175084        -0.044448         0.126325
 C         4.611264        -0.077067         0.600386
 O         4.557527        -0.022251         1.971949
 C         3.129803         0.072084         2.437192
 C         2.390148         0.514666         1.242583
 O         2.450712         0.603075        -1.006191
 H        -0.727498        -0.480033         0.737519
 H        -0.663132         1.008712        -0.008489
 H        -0.534615        -0.304476        -1.090002
 H         2.318683        -1.912517         1.074725
 H         2.208614        -1.966651        -0.874602
 H         5.048227        -1.017556         0.226543
 H         5.317130         0.736919         0.226281
 H         2.601465        -0.930240         2.875789
 H         3.042324         0.839654         3.254849
 H         2.214599         1.631141         1.185745
