19
Iteration:  1936
 C        -0.117539         0.084558        -0.189293
 C         1.366138        -0.066832         0.098242
 C         2.136323        -1.414148         0.036012
 C         3.129737        -0.165741         0.159248
 C         4.597493        -0.065391         0.460782
 O         4.579722         0.072065         2.009994
 C         3.171961         0.090736         2.540786
 C         2.309711         0.488814         1.270270
 O         2.388662         0.474105        -0.929255
 H        -0.485182        -0.799481         0.434921
 H        -0.465511         1.054479        -0.006160
 H        -0.276933        -0.142250        -1.224811
 H         2.053322        -2.132658         0.881081
 H         2.141212        -1.763654        -1.000995
 H         5.169674        -0.907989         0.337574
 H         4.968957         0.860458        -0.029489
 H         3.073992        -0.990222         2.829591
 H         3.247377         0.861912         3.368805
 H         2.380619         1.637507         1.162358
