19
Iteration:  3739
 C        -0.018054         0.105062        -0.063876
 C         1.387679        -0.024000         0.085589
 C         2.213538        -1.450793         0.162996
 C         3.199993        -0.095617         0.095217
 C         4.658051         0.146594         0.478215
 O         4.466445        -0.213647         1.949102
 C         3.045271        -0.011505         2.436721
 C         2.298603         0.623565         1.157200
 O         2.382499         0.481282        -0.879526
 H        -0.260071         0.443904        -1.064688
 H        -0.436162        -0.843212        -0.004618
 H        -0.735432         0.641534         0.503184
 H         2.146852        -2.060116         1.052612
 H         2.035617        -2.014446        -0.825979
 H         5.371270        -0.555751         0.034925
 H         4.982678         1.133877         0.403677
 H         2.701360        -1.109187         2.655286
 H         3.236523         0.693798         3.296561
 H         2.381783         1.701929         1.164921
