19
Iteration:  2530charge 0 multiplicity 1
 C        -0.068315        -0.010998         0.065769
 C         1.430443        -0.064345         0.121203
 C         2.314307        -1.289667         0.057924
 C         3.266251        -0.144406        -0.011855
 C         4.753979        -0.145966         0.710785
 O         4.431771        -0.205972         2.062527
 C         3.032718         0.210550         2.374243
 C         2.413713         0.671285         1.094715
 O         2.170808         0.536112        -1.089192
 H        -0.507831        -0.784693         0.631159
 H        -0.425458         0.985189         0.471641
 H        -0.330651        -0.115129        -0.928496
 H         2.247767        -1.850257         1.042817
 H         2.180831        -1.949806        -0.840688
 H         5.256166        -1.111596         0.386573
 H         5.129008         0.743579         0.351480
 H         2.488223        -0.702229         2.797180
 H         2.910556         0.920354         3.141116
 H         2.120322         1.701400         0.967197
