19
Iteration:  4223charge 0 multiplicity 1
 C        -0.131107         0.052043        -0.069577
 C         1.382060        -0.089310         0.102532
 C         2.368417        -1.370535        -0.050173
 C         3.166853        -0.042411         0.051139
 C         4.609612         0.053264         0.581802
 O         4.475644        -0.158955         2.009591
 C         3.090686        -0.125772         2.428780
 C         2.331089         0.485341         1.207816
 O         2.345817         0.678362        -0.855690
 H        -0.538892         0.536303         0.837089
 H        -0.253123         0.807178        -0.856636
 H        -0.505913        -0.848038        -0.350435
 H         2.476192        -2.102986         0.784850
 H         2.248226        -1.862110        -1.114718
 H         5.275041        -0.799626         0.289826
 H         4.858653         1.046996         0.354332
 H         2.720125        -1.113063         2.585165
 H         2.923611         0.700610         3.230044
 H         2.269122         1.611083         1.306386
