19
Iteration:  1789
 C        -0.200933         0.033243        -0.182031
 C         1.370656        -0.119677         0.139607
 C         2.419077        -1.326134         0.257252
 C         3.232278        -0.038456         0.046314
 C         4.659767         0.035595         0.493029
 O         4.421083        -0.292312         1.987229
 C         3.110302         0.073662         2.397625
 C         2.354881         0.674747         1.182497
 O         2.276330         0.523816        -0.922590
 H        -0.663857         0.107974         0.800927
 H        -0.422776         0.890022        -0.901266
 H        -0.587733        -0.884645        -0.713608
 H         2.597342        -1.866634         1.227675
 H         2.523136        -2.134326        -0.503940
 H         5.229180        -0.742416         0.001500
 H         5.084159         0.995076         0.258498
 H         2.536365        -0.800863         2.905065
 H         3.220104         0.802077         3.193683
 H         2.395934         1.766817         1.237441
