19
Iteration:  3387charge 0 multiplicity 1
 C        -0.048781         0.090823        -0.215467
 C         1.383444        -0.079696         0.197504
 C         2.193192        -1.422878         0.174979
 C         3.107259        -0.187385         0.070911
 C         4.610877        -0.081511         0.555097
 O         4.564311         0.026725         1.978401
 C         3.135419         0.093153         2.440903
 C         2.317167         0.574006         1.176789
 O         2.331398         0.498409        -0.946791
 H        -0.563023        -0.737953         0.351367
 H        -0.459284         1.126693         0.227167
 H        -0.256448         0.057694        -1.284848
 H         2.126527        -2.000501         1.079528
 H         1.986910        -1.998264        -0.685857
 H         5.189287        -1.017404         0.410194
 H         5.011850         0.757436         0.021356
 H         3.051233        -0.913406         2.825473
 H         3.166534         0.715685         3.345513
 H         2.459289         1.610756         0.948852
