19
Iteration:  1006
 C        -0.196350        -0.019519        -0.182596
 C         1.391597        -0.092381         0.165246
 C         2.226116        -1.374572         0.065886
 C         3.144744        -0.094283         0.046098
 C         4.629429        -0.031640         0.605662
 O         4.575275        -0.172202         2.019998
 C         3.154012         0.076785         2.468780
 C         2.376329         0.608039         1.255697
 O         2.310882         0.615682        -0.960393
 H        -0.833633        -0.263327         0.643687
 H        -0.439367         1.081841        -0.662058
 H        -0.310993        -0.748020        -0.968551
 H         2.127790        -2.099780         0.885801
 H         2.350485        -1.895435        -0.906788
 H         5.371695        -0.750677         0.149918
 H         4.952980         1.008652         0.334918
 H         2.668528        -0.962164         2.743868
 H         3.226031         0.796009         3.316051
 H         2.425669         1.705946         0.970868
