19
Iteration:  1755
 C        -0.016857        -0.030397        -0.032326
 C         1.483416        -0.038796         0.178487
 C         2.299184        -1.320249         0.069673
 C         3.218198        -0.097322         0.019754
 C         4.603299         0.101714         0.531916
 O         4.349867        -0.346567         1.980206
 C         3.079589         0.138187         2.390424
 C         2.253418         0.677507         1.258386
 O         2.358536         0.465597        -1.001863
 H        -0.433514         0.178467         1.033751
 H        -0.424505         0.768896        -0.647783
 H        -0.311008        -1.070564        -0.274625
 H         2.466258        -2.051766         0.894001
 H         2.269516        -1.710744        -0.977043
 H         5.344131        -0.668034         0.177122
 H         5.085916         1.032511         0.632915
 H         2.591866        -0.505659         3.157221
 H         3.382735         1.081473         2.891259
 H         2.073224         1.700085         1.011615
