19
Iteration:  3221
 C        -0.039726        -0.024416        -0.108305
 C         1.368892        -0.070347         0.259822
 C         2.212820        -1.327573         0.212234
 C         3.190985        -0.044074         0.100814
 C         4.647667        -0.047499         0.501907
 O         4.502341        -0.226094         1.955995
 C         3.090968         0.142160         2.429387
 C         2.325968         0.683331         1.191904
 O         2.344063         0.485241        -1.050011
 H        -0.546545        -0.933028         0.289405
 H        -0.533711         0.950623         0.233778
 H        -0.178247         0.075565        -1.222557
 H         2.236810        -2.104037         0.921013
 H         2.169344        -1.909580        -0.729041
 H         5.183536        -0.972662         0.235369
 H         5.119846         0.867367         0.197664
 H         2.515587        -0.678418         2.831323
 H         3.121430         0.909743         3.166953
 H         2.227806         1.743696         1.080102
