19
Iteration:  2952
 C        -0.043861         0.098403        -0.170786
 C         1.396944        -0.105551         0.129029
 C         2.249699        -1.381827         0.114990
 C         3.155086        -0.189544         0.077184
 C         4.563505        -0.065603         0.520229
 O         4.487509        -0.129399         1.963738
 C         3.142372         0.146359         2.460012
 C         2.366832         0.608779         1.218945
 O         2.310440         0.501768        -0.901638
 H        -0.623805        -0.663454         0.344124
 H        -0.541385         1.030303         0.351985
 H        -0.301596         0.031169        -1.193520
 H         2.368207        -1.863592         1.063110
 H         2.105376        -2.025170        -0.772999
 H         5.201537        -0.843200         0.232895
 H         5.065184         0.897663         0.216750
 H         2.713551        -0.679598         3.090877
 H         3.356178         0.996865         3.132829
 H         2.348492         1.661040         0.897806
