19
Iteration:   722charge 0 multiplicity 1
 C        -0.089998        -0.122105        -0.029336
 C         1.352753        -0.110711         0.212691
 C         2.319835        -1.248474         0.149787
 C         3.203741         0.016748         0.050417
 C         4.679170         0.015437         0.599053
 O         4.357140        -0.414673         1.933305
 C         3.094036         0.173649         2.355194
 C         2.359354         0.665853         1.116326
 O         2.356964         0.577957        -0.973673
 H        -0.484093        -0.617875         0.736752
 H        -0.712993         0.879198         0.045591
 H        -0.295249        -0.714561        -0.939845
 H         2.424045        -1.786578         1.128961
 H         2.576859        -1.890650        -0.706316
 H         5.383813        -0.693481         0.066710
 H         4.942136         1.041464         0.665091
 H         2.440928        -0.512446         2.850731
 H         3.389222         1.015536         3.037296
 H         2.305593         1.811178         0.859808
