19
Iteration:  1598charge 0 multiplicity 1
 C        -0.007487         0.145197        -0.106924
 C         1.430470        -0.128139         0.122090
 C         2.272636        -1.397028         0.058371
 C         3.154453        -0.143562         0.119562
 C         4.620858        -0.141666         0.509751
 O         4.433074         0.204648         1.948834
 C         3.079207        -0.069852         2.470674
 C         2.344771         0.500818         1.216161
 O         2.302843         0.533325        -0.909750
 H        -0.618939        -0.482588         0.625926
 H        -0.318862         1.236305        -0.086180
 H        -0.368061        -0.100535        -1.132199
 H         2.179203        -1.964615         0.979693
 H         2.322920        -2.023344        -0.811172
 H         5.088987        -1.194606         0.490079
 H         5.285397         0.524364        -0.036133
 H         3.030050        -1.157338         2.749531
 H         2.991032         0.436355         3.456486
 H         2.318078         1.578671         1.015539
