19
Iteration:  3030
 C        -0.139794         0.140586        -0.002166
 C         1.399364        -0.157303         0.137857
 C         2.161202        -1.404261         0.062002
 C         3.199844        -0.162015         0.050596
 C         4.683708        -0.060130         0.572304
 O         4.491478         0.009817         2.007355
 C         3.078004         0.094145         2.395135
 C         2.379350         0.545056         1.137547
 O         2.389164         0.474544        -0.942321
 H        -0.718729        -0.419794         0.752445
 H        -0.458140         1.285745         0.145929
 H        -0.602377        -0.023079        -0.997815
 H         2.171079        -2.061519         0.918905
 H         2.146310        -1.949775        -0.874622
 H         5.267204        -0.932616         0.424867
 H         5.252194         0.860523         0.275395
 H         2.921425        -1.026355         2.500205
 H         2.913230         0.754586         3.281725
 H         2.307929         1.646217         0.846501
