19
Iteration:  2668
 C        -0.070377         0.112886        -0.030673
 C         1.413184        -0.106585         0.071001
 C         2.216884        -1.350932         0.067572
 C         3.161735        -0.121106         0.065579
 C         4.578079        -0.153775         0.501588
 O         4.444826         0.085013         1.978108
 C         3.019704        -0.009343         2.438228
 C         2.402063         0.500862         1.192959
 O         2.427230         0.513225        -0.935597
 H        -0.463328         0.021945         1.012471
 H        -0.259021         1.173500        -0.285414
 H        -0.530537        -0.669720        -0.695560
 H         2.198310        -1.967221         0.959308
 H         2.213785        -1.874948        -0.858198
 H         5.129579        -1.036683         0.410412
 H         5.120309         0.766336         0.171653
 H         2.895851        -0.938063         2.975945
 H         3.089532         0.702673         3.289501
 H         2.423411         1.626970         1.211226
