19
Iteration:  1165charge 0 multiplicity 1
 C        -0.107776        -0.002969        -0.216249
 C         1.422051        -0.088481         0.057208
 C         2.267362        -1.296183         0.175225
 C         3.187181        -0.056990         0.132678
 C         4.697062        -0.027458         0.554754
 O         4.500108        -0.150828         1.999410
 C         3.108294         0.048318         2.405808
 C         2.424504         0.590150         1.233629
 O         2.200093         0.529909        -0.932104
 H        -0.712491        -0.034222         0.829246
 H        -0.496593         1.012275        -0.606415
 H        -0.606266        -0.783154        -0.862855
 H         2.230229        -1.976684         1.082194
 H         2.238041        -1.853421        -0.791044
 H         5.312505        -0.881535         0.118960
 H         5.136781         0.971512         0.324456
 H         2.699042        -1.054492         2.693979
 H         3.027170         0.675215         3.323753
 H         2.411805         1.700186         1.246983
