19
Iteration:  2901
 C        -0.123097         0.057380        -0.097798
 C         1.387398        -0.114638         0.105602
 C         2.341040        -1.367984         0.268158
 C         3.171062        -0.048648         0.132857
 C         4.616027        -0.001844         0.496061
 O         4.445921        -0.262678         1.918906
 C         3.068611         0.102198         2.380015
 C         2.358900         0.617686         1.192266
 O         2.393772         0.554084        -0.981194
 H        -0.794135         0.025413         0.785024
 H        -0.389052         1.002576        -0.531377
 H        -0.573640        -0.751466        -0.704621
 H         2.211681        -1.916662         1.195255
 H         2.405794        -1.987590        -0.607849
 H         5.243117        -0.878991         0.144451
 H         5.057987         0.996401         0.388495
 H         2.587872        -0.755346         2.898764
 H         3.175492         0.802673         3.227132
 H         2.230757         1.703735         1.023065
