19
Iteration:  1884charge 0 multiplicity 1
 C        -0.067532         0.183458         0.018286
 C         1.406247        -0.141932         0.233387
 C         2.309554        -1.398152        -0.002380
 C         3.189447        -0.144903         0.054409
 C         4.640321        -0.175019         0.648282
 O         4.447652         0.252447         1.997249
 C         3.053789        -0.062695         2.346586
 C         2.403664         0.547098         1.138247
 O         2.258856         0.419010        -1.006087
 H        -0.781731        -0.700713         0.232070
 H        -0.286917         1.093031         0.495801
 H        -0.087951         0.552247        -0.991200
 H         2.180796        -2.142623         0.757935
 H         2.125513        -1.835677        -0.963860
 H         5.179258        -1.149538         0.860693
 H         5.241223         0.589587         0.089816
 H         3.055694        -1.202061         2.598150
 H         2.804981         0.571775         3.266413
 H         2.462192         1.630953         1.104818
