19
Iteration:  4884charge 0 multiplicity 1
 C        -0.031094         0.079594        -0.101614
 C         1.448045        -0.165693         0.088984
 C         2.266863        -1.327386        -0.132418
 C         3.158452        -0.037894         0.113065
 C         4.545604         0.056837         0.570616
 O         4.480301         0.006505         1.989571
 C         3.156326        -0.269158         2.417564
 C         2.264007         0.413884         1.247077
 O         2.290775         0.715217        -0.804429
 H        -0.163969         1.242771         0.085197
 H        -0.390987        -0.130690        -1.128783
 H        -0.576644        -0.415850         0.734806
 H         2.444184        -1.987807         0.714612
 H         2.405587        -1.841907        -1.158728
 H         4.954418        -0.938975         0.201782
 H         5.142267         0.869566         0.240042
 H         3.082701        -1.379073         2.562841
 H         3.174572         0.320491         3.438910
 H         2.312787         1.557796         1.463762
