19
Iteration:   840
 C        -0.132379         0.159049        -0.228146
 C         1.327311        -0.118449         0.226547
 C         2.145693        -1.402118         0.003499
 C         3.211236        -0.227620         0.098174
 C         4.678332        -0.088289         0.486291
 O         4.471540         0.361759         1.997773
 C         3.204240        -0.153386         2.403966
 C         2.334985         0.334880         1.246835
 O         2.371865         0.560032        -0.819458
 H        -0.928222        -0.312238         0.379849
 H        -0.363094         1.341797        -0.109045
 H        -0.218384        -0.223811        -1.322346
 H         2.049610        -2.180445         0.793979
 H         2.196662        -1.823313        -0.983748
 H         5.124257        -1.108311         0.630151
 H         5.204533         0.780136         0.066537
 H         3.146884        -1.280015         2.637718
 H         3.200621         0.434526         3.291701
 H         2.286099         1.424991         1.474133
