19
Iteration:  1854
 C        -0.109913         0.170580         0.004667
 C         1.385473        -0.091269         0.019289
 C         2.291694        -1.462924         0.060674
 C         3.178031        -0.160033         0.107101
 C         4.652534        -0.098209         0.509352
 O         4.483210         0.121046         2.022831
 C         3.031784         0.006261         2.415633
 C         2.342068         0.502614         1.171992
 O         2.374294         0.478538        -0.960524
 H        -0.649195        -0.598056         0.567285
 H        -0.354893         1.094707         0.637636
 H        -0.624141         0.217337        -1.010584
 H         1.986000        -2.039075         0.959382
 H         2.249674        -2.129854        -0.811046
 H         5.449027        -0.888536         0.547987
 H         5.089073         0.747905        -0.027786
 H         3.011908        -0.875382         2.901209
 H         2.926740         0.752274         3.167713
 H         2.364135         1.561540         1.154400
