19
Iteration:  4306charge 0 multiplicity 1
 C        -0.081617         0.110193        -0.116706
 C         1.369174        -0.039662         0.050443
 C         2.315733        -1.311009        -0.124543
 C         3.206068        -0.086557         0.092574
 C         4.618028         0.019804         0.573397
 O         4.495822        -0.024270         2.018884
 C         3.104776        -0.221922         2.420915
 C         2.288918         0.376326         1.316396
 O         2.322379         0.687765        -0.840674
 H        -0.502632         1.123988        -0.171740
 H        -0.537294        -0.568233        -0.910816
 H        -0.435775        -0.358846         0.911938
 H         2.160746        -2.114342         0.635067
 H         2.172360        -1.768680        -1.096009
 H         5.319361        -0.772950         0.299768
 H         5.214662         0.978717         0.255085
 H         2.858534        -1.249865         2.752442
 H         2.882189         0.329438         3.284599
 H         2.351281         1.465638         1.194472
