19
Iteration:  4729charge 0 multiplicity 1
 C        -0.070707        -0.003381        -0.070356
 C         1.410985        -0.143257         0.213225
 C         2.351728        -1.266752        -0.030293
 C         3.210813         0.061806         0.004062
 C         4.627451         0.130806         0.626487
 O         4.432183        -0.381003         1.880993
 C         3.059173        -0.071410         2.462607
 C         2.340503         0.483481         1.229826
 O         2.270929         0.704944        -0.940704
 H        -0.267512         1.043000         0.066609
 H        -0.167175        -0.476438        -1.064038
 H        -0.702955        -0.508037         0.730684
 H         2.485986        -1.887607         0.911717
 H         2.217099        -1.775341        -0.917619
 H         5.504830        -0.455006         0.214955
 H         4.964190         1.201863         0.730503
 H         2.624185        -0.936687         2.915729
 H         3.268947         0.557816         3.347496
 H         2.085442         1.590602         1.337133
