19
Iteration:  4508
 C        -0.138049         0.027457        -0.044919
 C         1.385892        -0.110810         0.147855
 C         2.367224        -1.294629        -0.053216
 C         3.152799         0.057274         0.132140
 C         4.626815         0.048479         0.550399
 O         4.484529        -0.238627         1.982394
 C         3.071433        -0.108528         2.423573
 C         2.288230         0.498545         1.257753
 O         2.364460         0.634421        -0.945650
 H        -0.587522         0.803472         0.674256
 H        -0.328787         0.468534        -1.038689
 H        -0.612158        -0.949687         0.125309
 H         2.560885        -2.040507         0.657800
 H         2.274752        -1.652103        -1.072837
 H         5.299446        -0.729412         0.064562
 H         4.922444         1.156696         0.330915
 H         2.678355        -1.098655         2.617529
 H         3.118122         0.531848         3.289815
 H         2.464439         1.599305         1.355254
