19
Iteration:  3877charge 0 multiplicity 1
 C        -0.065447         0.156293        -0.069032
 C         1.365676        -0.208407         0.254000
 C         2.348253        -1.336916         0.053892
 C         3.203005        -0.059261         0.086993
 C         4.658528         0.057289         0.498358
 O         4.399596        -0.171967         1.989743
 C         3.046933        -0.023712         2.440711
 C         2.323814         0.490987         1.208282
 O         2.323338         0.568727        -1.016891
 H        -0.413858        -0.663672        -0.766387
 H        -0.452627         0.436166         0.927010
 H        -0.026845         1.025150        -0.645837
 H         2.424970        -2.010960         0.877743
 H         2.406036        -1.782956        -0.972340
 H         5.305262        -0.748283         0.219918
 H         5.078098         1.099960         0.426203
 H         2.760950        -0.968060         2.727206
 H         3.074135         0.612714         3.273180
 H         2.128344         1.568775         1.240983
