19
Iteration:  2163
 C        -0.045761         0.189755        -0.082324
 C         1.429587        -0.156830         0.105407
 C         2.271036        -1.464151         0.125082
 C         3.127431        -0.180025         0.103129
 C         4.557279        -0.104913         0.516877
 O         4.494876         0.191959         1.946558
 C         3.042422         0.012958         2.414172
 C         2.332383         0.461038         1.176815
 O         2.371208         0.485526        -0.910162
 H        -0.529981        -0.303999         0.762272
 H        -0.129743         1.219723         0.067713
 H        -0.431530         0.066264        -1.028474
 H         2.116235        -2.067962         1.026552
 H         2.530930        -1.972259        -0.799651
 H         5.244136        -0.985871         0.527500
 H         4.963058         0.706941         0.010696
 H         2.874649        -1.012899         2.734792
 H         3.140062         0.710247         3.284268
 H         2.217047         1.547194         1.072331
