19
Iteration:  2166charge 0 multiplicity 1
 C        -0.052578         0.181772        -0.048667
 C         1.422142        -0.178827         0.104953
 C         2.286130        -1.453986         0.107616
 C         3.146222        -0.202282         0.127901
 C         4.576133        -0.107323         0.549769
 O         4.477319         0.195283         1.925298
 C         3.044199         0.007219         2.427266
 C         2.328546         0.483059         1.164530
 O         2.381049         0.500701        -0.925272
 H        -0.561929        -0.271815         0.862470
 H        -0.180487         1.251879        -0.003687
 H        -0.463402         0.040250        -1.081408
 H         2.149825        -2.068043         1.037342
 H         2.371752        -2.010230        -0.905314
 H         5.145663        -1.012044         0.464788
 H         5.085277         0.680942        -0.006255
 H         2.861280        -1.003786         2.668505
 H         3.050560         0.717299         3.257681
 H         2.224828         1.625310         1.056906
