19
Iteration:   667charge 0 multiplicity 1
 C        -0.167369        -0.013319        -0.102163
 C         1.377334        -0.111896         0.134102
 C         2.380958        -1.409403         0.125652
 C         3.184175        -0.069555         0.088062
 C         4.624200         0.012365         0.569043
 O         4.468010        -0.247128         1.986718
 C         3.146125         0.148737         2.399677
 C         2.304400         0.554232         1.184428
 O         2.303065         0.573161        -0.949589
 H        -0.786968        -0.372915         0.596079
 H        -0.482305         1.172444        -0.115691
 H        -0.506819        -0.360570        -1.133037
 H         2.506600        -1.981157         1.080728
 H         2.398011        -1.838473        -0.885013
 H         5.402725        -0.594386        -0.042748
 H         5.039189         0.977401         0.592375
 H         2.617795        -0.529580         3.044275
 H         3.328293         1.095870         3.134599
 H         2.372471         1.707172         0.902415
