19
Iteration:  4873
 C        -0.007729         0.118638        -0.054991
 C         1.397175        -0.075287         0.125619
 C         2.340459        -1.366020        -0.154409
 C         3.145126        -0.041668         0.111510
 C         4.554390         0.032854         0.565450
 O         4.518141         0.045047         1.983312
 C         3.069022        -0.245352         2.381887
 C         2.324299         0.398951         1.350898
 O         2.274033         0.631759        -0.834816
 H        -0.210299         1.256952         0.227532
 H        -0.138191        -0.040855        -1.145539
 H        -0.609345        -0.673321         0.419588
 H         2.192228        -2.253816         0.480864
 H         2.361069        -1.630608        -1.279536
 H         5.159544        -0.847811         0.140837
 H         5.009768         0.938387         0.206900
 H         2.871618        -1.340913         2.455005
 H         2.924578         0.182219         3.459507
 H         2.315788         1.561900         1.308970
