19
Iteration:  1438charge 0 multiplicity 1
 C        -0.119716        -0.021867        -0.080900
 C         1.384102        -0.100984         0.056771
 C         2.340369        -1.292183         0.038596
 C         3.149469        -0.063792         0.114145
 C         4.640882        -0.129001         0.573525
 O         4.534745        -0.202949         2.025692
 C         3.065797         0.190845         2.479958
 C         2.355460         0.681659         1.162885
 O         2.275646         0.479895        -0.980747
 H        -0.353589        -0.923715         0.736094
 H        -0.598247         0.909643         0.327043
 H        -0.480099        -0.132140        -1.107261
 H         2.272157        -1.929778         0.971804
 H         2.405932        -1.627974        -1.023743
 H         5.209188        -1.036483         0.165147
 H         5.098961         0.908257         0.439198
 H         2.520887        -0.644100         2.931975
 H         3.261603         0.923321         3.316456
 H         2.326819         1.778644         0.934534
