19
Iteration:  4747
 C        -0.111757        -0.021912        -0.067497
 C         1.357798        -0.078823         0.146950
 C         2.399792        -1.315401        -0.029712
 C         3.204797        -0.007230         0.148688
 C         4.583341         0.179309         0.506060
 O         4.449074        -0.436820         1.953056
 C         3.066182        -0.031226         2.370199
 C         2.321642         0.630579         1.262042
 O         2.339429         0.656245        -0.849838
 H        -0.605386         0.856494         0.353213
 H        -0.252736        -0.089425        -1.139344
 H        -0.569554        -0.829993         0.512587
 H         2.425148        -2.275374         0.594268
 H         2.474169        -1.641304        -1.125361
 H         5.253433        -0.395769        -0.029109
 H         4.858149         1.228871         0.547740
 H         2.723610        -1.097023         2.735899
 H         3.158580         0.607818         3.230596
 H         2.480906         1.694605         1.184089
