19
Iteration:  3150charge 0 multiplicity 1
 C        -0.132216         0.146478         0.042725
 C         1.346469        -0.156674         0.173509
 C         2.371050        -1.364730         0.091802
 C         3.235564        -0.134012         0.033986
 C         4.654773         0.016559         0.496578
 O         4.380770        -0.202206         2.045564
 C         3.021843         0.136134         2.414917
 C         2.442943         0.575496         1.153660
 O         2.320619         0.487920        -1.045975
 H        -0.668931        -0.212038         0.916350
 H        -0.306004         1.199617        -0.191085
 H        -0.572530        -0.327592        -0.797815
 H         2.609711        -2.161697         0.833749
 H         2.309745        -1.991696        -0.780338
 H         5.322542        -0.736492         0.141276
 H         5.020536         1.015219         0.365192
 H         2.690169        -0.836589         2.950869
 H         2.983225         0.973651         3.198077
 H         2.527021         1.705406         1.033790
