19
Iteration:  3902
 C        -0.152378         0.145183        -0.071799
 C         1.367026        -0.139692         0.074869
 C         2.248252        -1.388075        -0.032622
 C         3.196025        -0.112027         0.179225
 C         4.585522         0.057042         0.565551
 O         4.572393        -0.116035         2.013551
 C         3.076767        -0.011478         2.460780
 C         2.281265         0.490096         1.181523
 O         2.395094         0.553001        -0.945178
 H        -0.447274        -0.430457        -0.962085
 H        -0.435860        -0.206970         0.882417
 H        -0.417712         1.207256        -0.170094
 H         2.154256        -2.021182         0.912273
 H         2.296765        -1.944718        -1.026685
 H         5.194335        -0.784127         0.140038
 H         4.966021         1.106031         0.216487
 H         2.928983        -0.946290         2.892786
 H         3.163438         0.804288         3.207324
 H         2.315667         1.566563         1.077388
