19
Iteration:  2310
 C        -0.111335         0.110240        -0.156807
 C         1.368065        -0.098789         0.177123
 C         2.259408        -1.379972         0.234198
 C         3.177333        -0.138166         0.019582
 C         4.587218         0.112850         0.568947
 O         4.503149        -0.244752         1.977305
 C         3.099123         0.202777         2.420639
 C         2.341854         0.605501         1.199125
 O         2.345262         0.350289        -1.033268
 H        -0.666930        -0.642785         0.357270
 H        -0.410616         1.116645         0.272207
 H        -0.200629         0.013466        -1.281443
 H         2.398278        -1.968792         1.193191
 H         2.113124        -2.011524        -0.678257
 H         5.420130        -0.561870         0.257983
 H         5.069119         1.064822         0.543485
 H         2.782651        -0.673843         3.054957
 H         3.281289         1.081305         3.067667
 H         2.402117         1.744486         1.101907
