19
Iteration:  3950charge 0 multiplicity 1
 C        -0.149823         0.063033        -0.118371
 C         1.332977        -0.147295         0.200865
 C         2.264908        -1.314642         0.119928
 C         3.193185         0.010945         0.111823
 C         4.640207        -0.124159         0.498016
 O         4.526278        -0.035115         2.051081
 C         3.052005        -0.019933         2.319612
 C         2.341381         0.543414         1.222317
 O         2.361285         0.549344        -0.972234
 H        -0.078823         0.390110        -1.126981
 H        -0.696929        -0.890999         0.088261
 H        -0.503877         0.955607         0.443543
 H         2.347141        -2.021945         0.956492
 H         2.399221        -1.713477        -0.855461
 H         5.174069        -1.108822         0.289725
 H         5.159417         0.741986         0.060757
 H         2.892622        -1.111699         2.562113
 H         3.022757         0.583375         3.256831
 H         2.409431         1.653580         1.368092
