19
Iteration:   427charge 0 multiplicity 1
 C        -0.052300        -0.126719         0.002909
 C         1.448874        -0.165507         0.166374
 C         2.389131        -1.235058         0.130542
 C         3.232793         0.034022         0.019098
 C         4.599077        -0.024802         0.644860
 O         4.288187        -0.402836         1.975996
 C         3.094278         0.178146         2.358700
 C         2.377336         0.709175         1.097704
 O         2.270610         0.590834        -0.998695
 H        -0.396573        -0.253390         1.006617
 H        -0.433386         0.876946        -0.379319
 H        -0.486866        -0.939511        -0.642636
 H         2.763068        -1.851873         0.936923
 H         2.238343        -1.857739        -0.762526
 H         5.342436        -0.712015         0.281369
 H         5.216152         1.005658         0.548004
 H         2.596750        -0.671337         2.825541
 H         3.303664         1.013636         3.217174
 H         2.262654         1.781023         0.837659
