19
Iteration:  4871charge 0 multiplicity 1
 C        -0.003594         0.129585        -0.056303
 C         1.385816        -0.077272         0.135422
 C         2.351634        -1.361514        -0.154570
 C         3.138906        -0.053751         0.116867
 C         4.580055         0.029057         0.543784
 O         4.518139         0.048023         1.985492
 C         3.061117        -0.240044         2.390528
 C         2.333010         0.398451         1.355552
 O         2.274712         0.629751        -0.846253
 H        -0.331333         1.139118         0.247753
 H        -0.153889         0.005611        -1.125173
 H        -0.638454        -0.617741         0.402722
 H         2.180702        -2.306153         0.466939
 H         2.325238        -1.579632        -1.249487
 H         5.218174        -0.781567         0.205999
 H         4.986269         0.926494         0.221917
 H         2.830564        -1.353984         2.438573
 H         2.865786         0.145553         3.438462
 H         2.294567         1.530564         1.310032
