19
Iteration:  4362charge 0 multiplicity 1
 C        -0.072447         0.087138        -0.085732
 C         1.456846        -0.088789         0.024483
 C         2.399731        -1.342290         0.008910
 C         3.162168        -0.044765         0.140446
 C         4.571392         0.092308         0.517651
 O         4.471844        -0.161562         1.953263
 C         3.047737        -0.253976         2.467309
 C         2.320732         0.440259         1.258953
 O         2.318280         0.751179        -0.886124
 H        -0.311725         0.912863        -0.790148
 H        -0.732509        -0.753247        -0.464920
 H        -0.432815         0.171706         0.984866
 H         2.075199        -2.013609         0.747041
 H         2.334956        -1.750172        -1.014969
 H         5.311951        -0.624799         0.201990
 H         4.963520         1.179474         0.455317
 H         2.696729        -1.278628         2.664048
 H         2.962540         0.349321         3.330440
 H         2.285776         1.535672         1.379721
