19
Iteration:  3004charge 0 multiplicity 1
 C        -0.001381         0.159370         0.056000
 C         1.481464        -0.014235         0.103537
 C         2.233404        -1.362304         0.144846
 C         3.202057        -0.254913         0.055526
 C         4.592209        -0.053160         0.545256
 O         4.441820         0.015418         2.035380
 C         3.011204        -0.013216         2.396477
 C         2.416333         0.599379         1.134716
 O         2.269606         0.432421        -1.055353
 H        -0.553454        -0.676096         0.463241
 H        -0.543088         0.964501         0.528744
 H        -0.249040         0.235363        -0.979216
 H         2.220423        -1.990270         1.079404
 H         2.340255        -1.900857        -0.859688
 H         5.349195        -0.832306         0.403546
 H         5.058114         0.805174         0.216158
 H         2.842371        -1.089513         2.702599
 H         2.886221         0.764917         3.174711
 H         2.466374         1.660088         0.903345
