19
Iteration:  2414charge 0 multiplicity 1
 C        -0.062337         0.184342        -0.093765
 C         1.377511        -0.150205         0.142165
 C         2.280977        -1.446415         0.137603
 C         3.176975        -0.198956         0.116752
 C         4.620160        -0.065620         0.479458
 O         4.450366         0.124621         1.901801
 C         3.049033        -0.020943         2.435432
 C         2.293474         0.469704         1.223364
 O         2.418325         0.497966        -0.951516
 H        -0.567466         0.403874         0.949857
 H         0.054204         1.267091        -0.448680
 H        -0.749366        -0.326415        -0.793170
 H         2.226244        -1.927186         1.075185
 H         2.100844        -2.124370        -0.690841
 H         5.254409        -0.865876         0.443402
 H         5.105037         0.906003         0.134589
 H         2.831760        -0.943698         2.889054
 H         3.142370         0.691897         3.238961
 H         2.300232         1.529765         1.251171
