19
Iteration:  1853
 C        -0.112162         0.172261         0.001731
 C         1.379170        -0.090147         0.020747
 C         2.289646        -1.460290         0.062604
 C         3.185206        -0.164572         0.108809
 C         4.646890        -0.092934         0.513242
 O         4.482079         0.114831         2.017023
 C         3.027187         0.008348         2.414269
 C         2.342918         0.499135         1.169386
 O         2.381590         0.481753        -0.957060
 H        -0.696816        -0.599168         0.583804
 H        -0.360145         1.064083         0.618175
 H        -0.616987         0.169395        -0.999608
 H         1.991583        -2.012777         0.965100
 H         2.268047        -2.110546        -0.810251
 H         5.483953        -0.903424         0.527426
 H         5.065583         0.760696        -0.054063
 H         3.018385        -0.863931         2.924030
 H         2.962770         0.775266         3.171627
 H         2.386814         1.553894         1.172396
