19
Iteration:  3256charge 0 multiplicity 1
 C        -0.127956         0.116732        -0.210238
 C         1.342631        -0.078544         0.142912
 C         2.259969        -1.417981         0.235756
 C         3.232866        -0.150072         0.076707
 C         4.686787         0.008513         0.528682
 O         4.457540        -0.105721         1.951777
 C         3.154304         0.082040         2.495968
 C         2.334559         0.539760         1.187378
 O         2.275808         0.492438        -0.971807
 H        -0.805509        -0.356459         0.534920
 H        -0.385392         1.262633        -0.011876
 H        -0.439117        -0.373054        -1.118556
 H         2.144604        -1.993660         1.147867
 H         2.366692        -1.882102        -0.743413
 H         5.447818        -0.756795         0.092889
 H         5.121288         0.935670         0.180488
 H         2.887642        -0.821935         2.996263
 H         3.429330         0.832202         3.217517
 H         2.323240         1.593714         1.089704
