19
Iteration:  1848charge 0 multiplicity 1
 C        -0.134776         0.156874        -0.009253
 C         1.355390        -0.097805         0.043108
 C         2.256428        -1.416987         0.075743
 C         3.227088        -0.215299         0.116026
 C         4.630108        -0.062314         0.545437
 O         4.477216         0.079818         1.971524
 C         3.024862         0.046675         2.417302
 C         2.344109         0.463771         1.154220
 O         2.421223         0.500850        -0.942260
 H        -0.769226        -0.556724         0.586027
 H        -0.403798         1.090821         0.477529
 H        -0.543029        -0.046997        -0.982040
 H         2.120722        -1.914534         1.048595
 H         2.383255        -1.992794        -0.864385
 H         5.368084        -0.855092         0.320731
 H         4.948756         0.845122        -0.056483
 H         2.905329        -1.020806         3.045011
 H         3.112574         0.885940         3.193470
 H         2.491694         1.614086         1.200272
