19
Iteration:  2466charge 0 multiplicity 1
 C        -0.128506         0.192168        -0.205305
 C         1.376544        -0.066193         0.148136
 C         2.119960        -1.477110         0.154392
 C         3.211165        -0.158535         0.137837
 C         4.611545         0.038443         0.485343
 O         4.556751         0.045174         1.995880
 C         3.135959         0.014543         2.426273
 C         2.407600         0.479134         1.199193
 O         2.344668         0.431549        -0.919443
 H        -0.823062        -0.093113         0.611134
 H        -0.342470         1.243338        -0.595210
 H        -0.397163        -0.439614        -1.021716
 H         1.938715        -1.981417         1.115068
 H         2.107446        -2.113231        -0.754885
 H         5.327470        -0.748987         0.474963
 H         4.970083         1.033326         0.114847
 H         2.896707        -1.084316         2.722818
 H         3.118468         0.579677         3.316603
 H         2.400752         1.545303         1.197147
