19
Iteration:  2968
 C        -0.169666         0.144007        -0.043470
 C         1.353358        -0.080015         0.145073
 C         2.249000        -1.377927         0.179610
 C         3.232204        -0.102572         0.162478
 C         4.718368        -0.076491         0.488541
 O         4.502232        -0.112202         1.940787
 C         3.029557         0.171220         2.366686
 C         2.311924         0.504599         1.164363
 O         2.381426         0.468402        -0.948878
 H        -0.712228        -0.807976         0.159251
 H        -0.351317         1.057911         0.353177
 H        -0.199935         0.193963        -1.196014
 H         2.060169        -2.149105         0.970222
 H         2.432236        -1.889061        -0.756686
 H         5.257431        -1.097556         0.208061
 H         5.116347         0.910029         0.129374
 H         2.874226        -0.740503         2.941092
 H         2.875636         0.850626         3.189122
 H         2.239803         1.614706         1.125820
