19
Iteration:   131charge 0 multiplicity 1
 C        -0.086728        -0.032381        -0.093848
 C         1.371006        -0.093500         0.038280
 C         2.232699        -1.463904        -0.061285
 C         3.206938        -0.176932         0.137762
 C         4.667113        -0.097148         0.645249
 O         4.574484        -0.086116         2.095635
 C         3.114783         0.207337         2.425075
 C         2.389090         0.563955         1.128352
 O         2.195889         0.679288        -0.907469
 H        -0.600580        -0.632453         0.762578
 H        -0.601436         0.873905        -0.030302
 H        -0.409382        -0.502696        -0.977623
 H         2.098477        -2.249297         0.636767
 H         2.264880        -1.894605        -1.060591
 H         5.233358        -0.916909         0.300637
 H         5.231998         0.748987         0.211103
 H         2.711447        -0.616235         3.000734
 H         3.066230         1.058666         3.125260
 H         2.367994         1.593771         0.943483
