19
Iteration:   771
 C        -0.113426         0.075370         0.035166
 C         1.432349        -0.149395         0.179943
 C         2.325851        -1.386384         0.035236
 C         3.232501        -0.132254         0.052132
 C         4.651994         0.025223         0.526897
 O         4.458667        -0.071220         2.059578
 C         3.018911         0.009783         2.344201
 C         2.337189         0.624429         1.154664
 O         2.353678         0.526070        -0.963486
 H        -0.865085        -0.257833         0.953570
 H        -0.335032         1.078012        -0.042582
 H        -0.526027        -0.400247        -0.870801
 H         2.431373        -2.222747         0.747112
 H         2.147921        -1.834925        -0.982537
 H         5.199312        -0.861843         0.280529
 H         5.084423         0.998276         0.203921
 H         2.587834        -1.054894         2.495719
 H         2.849536         0.659158         3.248418
 H         2.236061         1.657033         1.045516
