19
Iteration:  3788
 C        -0.011825         0.013083        -0.089182
 C         1.433960        -0.144327         0.162707
 C         2.332905        -1.341733         0.016025
 C         3.206106        -0.017209         0.077678
 C         4.646183         0.000091         0.571872
 O         4.402792        -0.301959         1.957609
 C         3.025611         0.149194         2.403770
 C         2.388578         0.553859         1.220429
 O         2.251797         0.587415        -0.889345
 H        -0.553956        -0.353818        -0.980302
 H        -0.579768        -0.305749         0.849831
 H        -0.412726         1.078904        -0.088852
 H         2.424058        -2.056961         0.846630
 H         2.404775        -1.770488        -0.949603
 H         5.118578        -0.831713         0.002950
 H         5.261134         1.002968         0.351237
 H         2.612848        -0.694171         2.802362
 H         3.130977         0.975946         3.058529
 H         2.286160         1.661970         1.210042
