19
Iteration:  3078
 C        -0.091073         0.085613        -0.194958
 C         1.365663        -0.103005         0.209244
 C         2.226678        -1.423016         0.143689
 C         3.144415        -0.102843         0.136185
 C         4.660181        -0.096480         0.514947
 O         4.522583        -0.035899         1.993978
 C         3.147411         0.031394         2.352988
 C         2.366170         0.558792         1.188569
 O         2.291913         0.579148        -0.872873
 H        -0.806310         0.312092         0.669185
 H        -0.154544         0.940389        -0.823606
 H        -0.543845        -0.709549        -0.922098
 H         2.167126        -2.102010         1.000753
 H         2.046448        -2.041014        -0.739174
 H         5.346369        -1.029361         0.211125
 H         5.172046         0.911965         0.242261
 H         2.779553        -0.903598         2.669344
 H         3.260810         0.743793         3.150457
 H         2.294070         1.620131         0.956358
