19
Iteration:  3967charge 0 multiplicity 1
 C        -0.137964         0.096772        -0.116048
 C         1.396572        -0.054012         0.033000
 C         2.380491        -1.326990         0.090681
 C         3.148528        -0.048477         0.129283
 C         4.635520        -0.117327         0.546395
 O         4.481998        -0.018431         1.916036
 C         3.127980        -0.065942         2.516930
 C         2.298447         0.598279         1.239199
 O         2.327357         0.492298        -0.951868
 H        -0.482057         0.531550        -1.112424
 H        -0.617774        -0.828050         0.108561
 H        -0.579440         0.772365         0.684072
 H         2.384248        -1.956183         1.055445
 H         2.406541        -1.900372        -0.870962
 H         4.814503        -1.142565         0.285227
 H         5.317043         0.760130         0.357391
 H         2.682977        -1.082812         2.683971
 H         3.226312         0.463789         3.496582
 H         2.131958         1.655214         1.159983
