19
Iteration:  4695
 C        -0.103961         0.037724        -0.044246
 C         1.330788        -0.140083         0.084485
 C         2.440422        -1.257408        -0.071142
 C         3.216854         0.015059         0.116110
 C         4.625153         0.075054         0.605674
 O         4.494576        -0.326840         1.892613
 C         2.990534        -0.086242         2.441794
 C         2.284095         0.559927         1.273314
 O         2.317776         0.672733        -0.858483
 H        -0.372851         0.892993        -0.599707
 H        -0.610401        -0.756605        -0.625023
 H        -0.509166        -0.003250         1.029311
 H         2.429627        -2.182168         0.632738
 H         2.530896        -1.711959        -1.040515
 H         5.351879        -0.476413         0.037576
 H         4.889593         1.169304         0.615166
 H         2.765655        -1.134224         2.484415
 H         3.262391         0.370513         3.385688
 H         2.281862         1.685725         1.216289
