19
Iteration:  1989
 C        -0.112781         0.053343        -0.071111
 C         1.441281        -0.113728         0.132296
 C         2.352054        -1.305183         0.193043
 C         3.184682         0.012837         0.111677
 C         4.617324         0.049543         0.550506
 O         4.440057        -0.236033         1.883866
 C         2.992125         0.056026         2.427054
 C         2.335569         0.601545         1.216903
 O         2.329594         0.411264        -1.025157
 H        -0.541973         0.177679         0.986791
 H        -0.075352         1.024528        -0.562692
 H        -0.445025        -0.850025        -0.557599
 H         2.475982        -1.826899         1.187221
 H         2.387621        -1.875705        -0.753177
 H         5.302589        -0.698924         0.008223
 H         5.037185         1.101129         0.305154
 H         2.635041        -0.806465         2.896342
 H         3.253786         0.782288         3.232473
 H         2.353234         1.743682         1.338133
