19
Iteration:  1037charge 0 multiplicity 1
 C        -0.073590         0.111006        -0.149699
 C         1.460708        -0.050290         0.095835
 C         2.231580        -1.373565         0.113405
 C         3.154320        -0.128451         0.092601
 C         4.600505        -0.046914         0.526300
 O         4.494401         0.079549         1.919292
 C         3.078129        -0.075397         2.439766
 C         2.345411         0.499727         1.299104
 O         2.336965         0.491482        -0.902633
 H        -0.603973        -0.502408         0.477508
 H        -0.456670         1.236095        -0.043952
 H        -0.322253        -0.178030        -1.170144
 H         2.007906        -2.130437         1.008672
 H         2.352536        -1.966649        -0.871523
 H         5.376730        -0.826832         0.264305
 H         5.105692         0.912783         0.203210
 H         2.644183        -1.180916         2.687760
 H         3.034060         0.447871         3.411471
 H         2.422439         1.661264         1.311024
