19
Iteration:  1190
 C        -0.096407         0.051723        -0.118092
 C         1.428655        -0.096555         0.209168
 C         2.305120        -1.398929         0.050525
 C         3.155989        -0.136355         0.023185
 C         4.606661         0.135055         0.613902
 O         4.480122        -0.298587         1.991186
 C         3.105479         0.158354         2.448772
 C         2.373051         0.553665         1.172026
 O         2.300310         0.511165        -0.934885
 H        -0.862779         0.047205         0.590564
 H        -0.329586         1.102859        -0.693787
 H        -0.388496        -0.721879        -0.825509
 H         2.299455        -2.152995         0.897351
 H         2.156043        -1.912060        -0.907605
 H         5.269782        -0.486655         0.060784
 H         4.853080         1.207936         0.542927
 H         2.682963        -0.590148         3.084644
 H         3.295090         1.045139         3.053775
 H         2.422608         1.680818         1.058360
