19
Iteration:  2689
 C        -0.098374         0.210037         0.022342
 C         1.442957        -0.100073         0.105293
 C         2.255794        -1.432114         0.062743
 C         3.187190        -0.193892         0.125570
 C         4.718245        -0.147058         0.627210
 O         4.495533         0.118058         2.018449
 C         3.025662         0.019836         2.282208
 C         2.315445         0.572500         1.143545
 O         2.276285         0.481415        -0.970958
 H        -0.546050        -0.318184         0.913905
 H        -0.196451         1.276332         0.212888
 H        -0.435431        -0.249658        -0.964888
 H         2.299325        -2.214595         0.808633
 H         2.306087        -1.821000        -0.924682
 H         5.233344        -1.074747         0.533849
 H         5.317203         0.713967         0.163012
 H         2.678010        -1.166148         2.388069
 H         2.944417         0.285565         3.375955
 H         2.311336         1.671698         0.858939
