19
Iteration:  3367charge 0 multiplicity 1
 C        -0.080870         0.059539        -0.076082
 C         1.374407        -0.115616         0.218243
 C         2.171717        -1.394788         0.077192
 C         3.197296        -0.187919         0.070008
 C         4.585166        -0.169112         0.496214
 O         4.456844         0.095628         1.982941
 C         3.084089         0.109979         2.420656
 C         2.426788         0.557179         1.181994
 O         2.405013         0.552866        -0.928782
 H        -0.827190        -0.515908         0.555479
 H        -0.266696         1.180234        -0.251604
 H        -0.222487        -0.472880        -1.041414
 H         2.320573        -2.026616         0.976937
 H         2.063797        -1.999079        -0.783399
 H         5.154468        -1.153785         0.341081
 H         5.070124         0.648123         0.002563
 H         2.761200        -1.023631         2.907545
 H         3.065949         0.859510         3.235898
 H         2.415339         1.662949         1.086594
