19
Iteration:  1995charge 0 multiplicity 1
 C        -0.117165         0.046725        -0.007331
 C         1.389126        -0.103042         0.140103
 C         2.384438        -1.302751         0.204380
 C         3.181530         0.043098         0.139695
 C         4.634996         0.068177         0.535101
 O         4.404308        -0.275693         1.864955
 C         3.022459         0.065441         2.412846
 C         2.332598         0.616409         1.185009
 O         2.394182         0.398422        -1.031328
 H        -0.524672         0.193280         0.947579
 H        -0.382265         1.008919        -0.613982
 H        -0.555627        -0.859108        -0.516868
 H         2.407373        -2.042711         0.996016
 H         2.449091        -1.774510        -0.778991
 H         5.445135        -0.629151         0.226467
 H         4.981116         1.050229         0.257224
 H         2.510648        -0.822075         2.958277
 H         2.976353         0.861425         3.173910
 H         2.406916         1.668956         1.240270
