19
Iteration:  2034charge 0 multiplicity 1
 C        -0.008566        -0.037633         0.122435
 C         1.452711        -0.065412         0.082601
 C         2.327573        -1.300773         0.085731
 C         3.268789        -0.147772        -0.032267
 C         4.653258         0.050352         0.624580
 O         4.306288        -0.309857         2.025986
 C         2.976144         0.183018         2.427684
 C         2.435842         0.599104         1.043834
 O         2.249082         0.550187        -1.059863
 H        -0.331460        -0.119365         1.275770
 H        -0.450519         0.851672        -0.242245
 H        -0.392877        -0.971100        -0.299230
 H         2.210314        -1.973209         0.975688
 H         2.374277        -1.779512        -0.907273
 H         5.392827        -0.704160         0.367878
 H         5.194702         1.090873         0.697599
 H         2.759964        -0.628230         3.053078
 H         3.116646         1.100499         3.027906
 H         2.389397         1.746296         0.878650
