19
Iteration:  3321
 C        -0.084366         0.127879        -0.004563
 C         1.353765        -0.155360         0.132652
 C         2.278248        -1.382499         0.146061
 C         3.215099        -0.152679         0.006113
 C         4.607058        -0.074468         0.576445
 O         4.515381         0.082210         2.046740
 C         3.056049        -0.026899         2.427517
 C         2.384768         0.543923         1.101002
 O         2.312664         0.515861        -1.042186
 H        -0.441025         0.253567         1.052152
 H        -0.155955         1.206964        -0.522179
 H        -0.759166        -0.628522        -0.384682
 H         2.197604        -2.061997         0.948783
 H         2.254132        -1.925347        -0.787911
 H         5.189617        -1.001910         0.317841
 H         5.222211         0.750777         0.388608
 H         2.680676        -1.135255         2.674241
 H         2.762573         0.656933         3.226761
 H         2.501126         1.598227         0.939195
