19
Iteration:  4279charge 0 multiplicity 1
 C        -0.090524         0.040032        -0.062800
 C         1.334526        -0.122993         0.139569
 C         2.297399        -1.333918        -0.108995
 C         3.171809        -0.038955         0.113232
 C         4.578928         0.006272         0.522719
 O         4.471249        -0.012006         1.987538
 C         3.071266        -0.225276         2.405290
 C         2.334432         0.484345         1.320975
 O         2.448451         0.722429        -0.865554
 H        -0.504199         0.961699         0.387371
 H        -0.180376         0.008746        -1.107877
 H        -0.660468        -0.692223         0.346763
 H         2.117817        -2.079575         0.687328
 H         2.243470        -1.928270        -1.072077
 H         5.246940        -0.870808         0.296914
 H         5.106922         0.854248         0.201074
 H         2.747017        -1.253998         2.439864
 H         2.805690         0.249352         3.421873
 H         2.418092         1.519611         1.045762
