19
Iteration:  2256charge 0 multiplicity 1
 C        -0.076572         0.093277        -0.115631
 C         1.351355        -0.181189         0.256862
 C         2.316861        -1.343288         0.143247
 C         3.163511        -0.115796         0.115333
 C         4.564384        -0.072766         0.486907
 O         4.463257        -0.105286         1.987289
 C         3.106302         0.135905         2.442786
 C         2.310843         0.667367         1.199990
 O         2.386557         0.451742        -1.059416
 H        -0.588019        -0.073665         0.810922
 H        -0.134076         1.066093        -0.686065
 H        -0.380650        -0.736684        -0.848224
 H         2.337978        -2.004794         1.053627
 H         2.371355        -1.925589        -0.810528
 H         5.167916        -0.942840         0.298149
 H         5.059163         0.972302         0.314629
 H         2.812740        -0.858403         2.836979
 H         3.172029         0.816298         3.258889
 H         2.168857         1.776814         1.122523
