19
Iteration:  1935charge 0 multiplicity 1
 C        -0.107777         0.081036        -0.181594
 C         1.365872        -0.068902         0.090966
 C         2.127622        -1.414606         0.039715
 C         3.127764        -0.166162         0.167722
 C         4.590741        -0.071736         0.461723
 O         4.576146         0.080868         2.017693
 C         3.170563         0.088952         2.529259
 C         2.312769         0.482876         1.274371
 O         2.392053         0.481282        -0.939172
 H        -0.464353        -0.802204         0.424270
 H        -0.488252         1.076824         0.008337
 H        -0.296992        -0.113172        -1.233219
 H         2.067011        -2.160318         0.882512
 H         2.161806        -1.775181        -1.008079
 H         5.179169        -0.943925         0.303930
 H         4.957032         0.866733        -0.011970
 H         3.111667        -0.954625         2.827800
 H         3.294570         0.840090         3.346375
 H         2.363501         1.634978         1.175265
