19
Iteration:  4860charge 0 multiplicity 1
 C        -0.133606         0.164541        -0.090530
 C         1.403578        -0.138685         0.206768
 C         2.292044        -1.314528        -0.135602
 C         3.216150        -0.144290         0.124411
 C         4.696744         0.060117         0.477850
 O         4.474013         0.039999         2.028307
 C         3.068877        -0.266742         2.449474
 C         2.318297         0.430549         1.239993
 O         2.294682         0.643582        -0.872390
 H        -0.585603         1.029911         0.426059
 H        -0.352665         0.262223        -1.146237
 H        -0.636584        -0.717307         0.333870
 H         2.513412        -2.243022         0.538119
 H         2.232585        -1.534438        -1.221304
 H         5.428523        -0.702855         0.288305
 H         5.019910         0.996972         0.204384
 H         2.944569        -1.405866         2.411441
 H         2.932153         0.186645         3.486254
 H         2.284337         1.543584         1.474154
