19
Iteration:   337charge 0 multiplicity 1
 C        -0.085976         0.313253        -0.087411
 C         1.367857        -0.257568         0.070722
 C         2.305824        -1.512358        -0.033547
 C         3.140130        -0.216611         0.210300
 C         4.568578         0.082961         0.543404
 O         4.507150         0.108895         1.947892
 C         3.153964         0.044323         2.442180
 C         2.292307         0.457351         1.210452
 O         2.347421         0.407840        -0.859773
 H        -0.938018        -0.337331         0.421231
 H        -0.131378         1.275313         0.187772
 H        -0.217079         0.270314        -1.108302
 H         2.287148        -2.227570         0.831846
 H         2.407675        -2.007739        -1.083645
 H         5.351646        -0.654211         0.252225
 H         4.962035         1.020198         0.068387
 H         2.825289        -0.980756         2.890128
 H         2.989399         0.777432         3.236414
 H         2.303590         1.494026         1.177355
