19
Iteration:  1934charge 0 multiplicity 1
 C        -0.097208         0.076576        -0.173437
 C         1.365314        -0.071441         0.083595
 C         2.119575        -1.414406         0.043598
 C         3.126303        -0.167517         0.175797
 C         4.583179        -0.076979         0.464338
 O         4.572528         0.090009         2.024118
 C         3.169849         0.087012         2.516863
 C         2.316570         0.478801         1.278321
 O         2.395098         0.488629        -0.948446
 H        -0.450039        -0.793551         0.410148
 H        -0.514690         1.101140         0.029261
 H        -0.317395        -0.086973        -1.245669
 H         2.079992        -2.182690         0.877236
 H         2.182063        -1.790911        -1.009648
 H         5.195110        -0.987629         0.264873
 H         4.947792         0.868749         0.008802
 H         3.140348        -0.920601         2.833032
 H         3.333089         0.812603         3.320979
 H         2.345353         1.618670         1.189059
