19
Iteration:  4633
 C        -0.164446         0.126230        -0.061544
 C         1.400761        -0.145460         0.111805
 C         2.345716        -1.308098        -0.158132
 C         3.178968        -0.031071         0.155246
 C         4.731008        -0.003129         0.562440
 O         4.501261        -0.063187         2.045678
 C         3.070430        -0.224480         2.348150
 C         2.323967         0.466336         1.234152
 O         2.263294         0.670588        -0.804459
 H        -0.396413         0.902560        -0.796077
 H        -0.441028        -0.875731        -0.464151
 H        -0.708562         0.416138         0.838371
 H         2.283812        -2.129421         0.506197
 H         2.495213        -1.427877        -1.191555
 H         5.391249        -0.757325        -0.003069
 H         5.060492         1.036877         0.395743
 H         2.826680        -1.307310         2.387882
 H         2.809907         0.129533         3.416133
 H         2.235233         1.572732         1.307798
