19
Iteration:  4210
 C        -0.033134         0.035979        -0.046202
 C         1.410635        -0.122517         0.178779
 C         2.283604        -1.258358        -0.090199
 C         3.227721        -0.071213         0.117303
 C         4.592180         0.090351         0.526627
 O         4.439976        -0.183840         1.972696
 C         3.007075        -0.091637         2.454843
 C         2.314536         0.465713         1.293651
 O         2.376060         0.630438        -0.960701
 H        -0.654338         0.243008         0.804439
 H        -0.172106         0.824570        -0.849884
 H        -0.599583        -0.816592        -0.418750
 H         2.201910        -2.014493         0.694316
 H         2.298206        -1.699050        -1.132951
 H         5.348801        -0.512297         0.061886
 H         5.048050         1.050737         0.421451
 H         2.783773        -1.064204         3.001542
 H         3.134924         0.522123         3.391562
 H         2.348188         1.577071         1.170339
