19
Iteration:  4087charge 0 multiplicity 1
 C        -0.026957        -0.010258        -0.086321
 C         1.401641        -0.018472         0.112649
 C         2.271680        -1.387637        -0.020086
 C         3.212594        -0.078038         0.148802
 C         4.630921         0.019770         0.569100
 O         4.521972        -0.211737         2.031974
 C         3.064037        -0.023937         2.488357
 C         2.381431         0.626797         1.218562
 O         2.223182         0.604453        -1.007086
 H        -0.500327        -0.879424        -0.558914
 H        -0.552904         0.278240         0.791233
 H        -0.385009         0.810567        -0.838901
 H         2.132424        -2.018309         0.844610
 H         2.296144        -1.849791        -0.974554
 H         5.181026        -0.737368         0.075664
 H         4.943883         1.044830         0.378809
 H         2.512110        -1.040801         2.718484
 H         3.216184         0.693158         3.287781
 H         2.437807         1.712882         1.259652
