19
Iteration:  2546
 C        -0.001762         0.044075         0.094275
 C         1.455425        -0.032487         0.020461
 C         2.269644        -1.390822         0.113441
 C         3.260936        -0.109791         0.066068
 C         4.644816        -0.007960         0.593132
 O         4.355089        -0.277220         2.055666
 C         3.033691         0.178390         2.421417
 C         2.412960         0.609300         1.051675
 O         2.229900         0.526638        -1.078007
 H        -0.439686        -0.768369         0.822436
 H        -0.480524         0.921467         0.510965
 H        -0.527411        -0.238689        -0.918193
 H         2.314124        -1.960929         1.021533
 H         2.281984        -2.098544        -0.694635
 H         5.379041        -0.718464         0.337135
 H         5.260419         1.007678         0.518903
 H         2.508450        -0.591827         3.032748
 H         3.192280         1.122829         3.051394
 H         2.662422         1.677321         0.892439
