19
Iteration:  3897
 C        -0.161733         0.154566        -0.079976
 C         1.377603        -0.176997         0.107425
 C         2.258242        -1.416304        -0.033692
 C         3.191899        -0.065859         0.119510
 C         4.618967         0.063524         0.604113
 O         4.577237        -0.129365         2.008401
 C         3.080087        -0.002053         2.417327
 C         2.225342         0.506852         1.197666
 O         2.410371         0.553938        -0.949909
 H        -0.565716        -0.477941        -0.895758
 H        -0.597985        -0.063755         0.974513
 H        -0.324474         1.236620        -0.219927
 H         2.259483        -2.018842         0.840170
 H         2.213515        -1.973540        -0.941130
 H         5.155992        -0.789289         0.230733
 H         4.919295         1.012539         0.265364
 H         2.965487        -1.019123         2.995650
 H         3.214385         0.749033         3.186963
 H         2.303100         1.621160         1.189862
