19
Iteration:  1680
 C        -0.098947         0.058901        -0.098709
 C         1.422392        -0.115215         0.172282
 C         2.275459        -1.417182         0.188586
 C         3.196341        -0.052482         0.076397
 C         4.577316        -0.031262         0.454575
 O         4.432289        -0.055223         2.033200
 C         3.052545         0.022762         2.335780
 C         2.381100         0.648767         1.221304
 O         2.388819         0.477896        -0.936041
 H        -0.623269        -0.706744         0.432985
 H        -0.312262         1.047787         0.295999
 H        -0.133236        -0.074360        -1.177710
 H         2.302062        -2.133262         1.043856
 H         2.228247        -1.853584        -0.844419
 H         5.186024        -0.872397         0.157400
 H         4.953719         0.993748         0.107861
 H         2.768885        -1.096606         2.574633
 H         2.969622         0.670616         3.218674
 H         2.274748         1.729347         0.990781
