19
Iteration:  1978charge 0 multiplicity 1
 C         0.018807         0.063553        -0.129659
 C         1.411770        -0.118035         0.141994
 C         2.334305        -1.338472         0.193728
 C         3.190904        -0.079227         0.036791
 C         4.594338         0.061501         0.497717
 O         4.499672        -0.201123         1.983020
 C         3.072243         0.038117         2.442189
 C         2.311176         0.635076         1.229183
 O         2.225440         0.475491        -0.976698
 H        -0.644553         0.090184         0.787684
 H        -0.233608         0.979259        -0.688429
 H        -0.474708        -0.613826        -0.821414
 H         2.369284        -1.854140         1.197551
 H         2.290899        -2.148048        -0.560523
 H         5.149530        -0.811012         0.040561
 H         5.137627         1.043418         0.418338
 H         2.734895        -0.899274         2.763575
 H         3.171013         0.759656         3.301664
 H         2.120574         1.746173         1.067387
