19
Iteration:  3371charge 0 multiplicity 1
 C        -0.073798         0.065948        -0.086980
 C         1.359110        -0.130000         0.221080
 C         2.158940        -1.395982         0.088864
 C         3.199147        -0.228828         0.034241
 C         4.546249        -0.165108         0.511227
 O         4.457882         0.096486         1.982476
 C         3.126303         0.111341         2.410577
 C         2.425249         0.554943         1.229981
 O         2.405431         0.567444        -0.933129
 H        -0.807238        -0.501238         0.438906
 H        -0.278831         1.054787        -0.149852
 H        -0.133768        -0.414674        -1.084363
 H         2.294783        -1.956702         1.056515
 H         2.132494        -2.098848        -0.813287
 H         5.123614        -1.049423         0.275751
 H         5.184642         0.721792         0.154357
 H         2.688646        -0.763967         2.687384
 H         3.071651         0.818932         3.247616
 H         2.443191         1.662663         1.045603
