19
Iteration:  1496charge 0 multiplicity 1
 C        -0.047512         0.069184        -0.133571
 C         1.388130        -0.069905         0.117823
 C         2.354270        -1.320429         0.162350
 C         3.166189        -0.036336         0.146593
 C         4.686692         0.140786         0.582210
 O         4.429458        -0.362933         1.984612
 C         3.111562         0.121373         2.356394
 C         2.338750         0.667573         1.177848
 O         2.217935         0.357418        -0.956711
 H        -0.706543        -0.319938         0.622050
 H        -0.450177         1.170462        -0.245825
 H        -0.302089        -0.592391        -1.024188
 H         2.356681        -1.948015         1.047880
 H         2.376718        -1.893206        -0.768470
 H         5.351198        -0.478199         0.010025
 H         5.092383         1.211495         0.675125
 H         2.598408        -0.675633         2.790212
 H         3.393610         0.824200         3.111876
 H         2.375405         1.745474         0.972508
