19
Iteration:  2759charge 0 multiplicity 1
 C        -0.121804         0.112830        -0.186231
 C         1.313099        -0.085262         0.154071
 C         2.159317        -1.415314         0.112197
 C         3.149126        -0.160476         0.130712
 C         4.634799        -0.054836         0.484857
 O         4.545160        -0.009774         1.945499
 C         3.178856         0.080304         2.514875
 C         2.367252         0.593734         1.254801
 O         2.373654         0.461385        -0.932842
 H        -0.619943        -0.835389        -0.075957
 H        -0.610629         0.937515         0.461758
 H        -0.072538         0.282363        -1.231684
 H         2.159071        -2.189250         0.907720
 H         2.158446        -1.852184        -0.921944
 H         5.233308        -0.916918         0.156980
 H         4.998428         0.855660         0.096826
 H         2.785275        -0.888193         2.829181
 H         3.082839         0.678028         3.417642
 H         2.445563         1.689638         1.129710
