19
Iteration:  3369charge 0 multiplicity 1
 C        -0.078247         0.067042        -0.079513
 C         1.365414        -0.123744         0.219583
 C         2.162645        -1.395126         0.080761
 C         3.202561        -0.209386         0.051704
 C         4.561908        -0.167221         0.502822
 O         4.455367         0.096921         1.983446
 C         3.105928         0.112528         2.412968
 C         2.429113         0.555078         1.209307
 O         2.406191         0.561441        -0.931025
 H        -0.824887        -0.517288         0.483856
 H        -0.254151         1.075678        -0.199817
 H        -0.176861        -0.455574        -1.063240
 H         2.318187        -1.998111         1.030939
 H         2.101161        -2.055771        -0.796330
 H         5.145824        -1.113230         0.300135
 H         5.130040         0.689468         0.076678
 H         2.714349        -0.911533         2.803588
 H         3.070859         0.844310         3.242948
 H         2.425763         1.683718         1.066411
