19
Iteration:  1666charge 0 multiplicity 1
 C        -0.070776         0.096503        -0.143621
 C         1.346700        -0.095148         0.161423
 C         2.195149        -1.374845         0.137974
 C         3.181200        -0.197233         0.134833
 C         4.668877         0.027301         0.593267
 O         4.560200         0.007149         1.949333
 C         3.072816         0.022380         2.404570
 C         2.337423         0.540554         1.130390
 O         2.324454         0.501360        -0.927897
 H        -0.745353        -0.840786         0.194170
 H        -0.595662         0.979788         0.235634
 H        -0.209789         0.052376        -1.231196
 H         2.145000        -1.941712         1.093780
 H         2.175673        -2.091358        -0.714754
 H         5.450665        -0.788272         0.221410
 H         5.125150         0.940983         0.241905
 H         2.656627        -1.032493         2.595660
 H         3.062811         0.544459         3.427722
 H         2.432226         1.648423         1.120020
