19
Iteration:  4329charge 0 multiplicity 1
 C        -0.069383         0.103350        -0.111294
 C         1.311370        -0.174411         0.149104
 C         2.359012        -1.308460        -0.121440
 C         3.232864        -0.055553         0.067317
 C         4.604773         0.015000         0.609757
 O         4.513953        -0.066005         2.068333
 C         3.085469        -0.224850         2.433148
 C         2.384533         0.482470         1.301229
 O         2.238424         0.691931        -0.940603
 H        -0.047356         1.130584        -0.534068
 H        -0.594028        -0.668041        -0.808521
 H        -0.653362         0.241816         0.896893
 H         2.324109        -2.264346         0.350528
 H         2.151353        -1.529472        -1.194125
 H         5.279396        -0.691999         0.124017
 H         5.080968         1.048746         0.361286
 H         2.805972        -1.288742         2.625166
 H         2.929549         0.230406         3.382968
 H         2.208320         1.566969         1.377499
