19
Iteration:  2298charge 0 multiplicity 1
 C        -0.089031         0.121084        -0.184734
 C         1.391290        -0.105025         0.069540
 C         2.252912        -1.418932         0.306312
 C         3.188697        -0.173830         0.116215
 C         4.624998         0.135629         0.588537
 O         4.476051        -0.257976         1.944588
 C         3.179522         0.149507         2.468188
 C         2.407588         0.639073         1.126528
 O         2.258264         0.392374        -0.985077
 H        -0.761938        -0.513568         0.363388
 H        -0.312688         1.182911        -0.033805
 H        -0.361096         0.007128        -1.283646
 H         2.229968        -1.960191         1.300098
 H         2.264720        -2.155352        -0.562372
 H         5.585472        -0.243976         0.083761
 H         4.424753         1.139008         0.393658
 H         2.533708        -0.681253         2.880098
 H         3.284563         0.946280         3.282515
 H         2.320102         1.780415         0.888619
