19
Iteration:  4803
 C        -0.143266         0.071732        -0.047052
 C         1.366117        -0.154370         0.228359
 C         2.340002        -1.305168        -0.115487
 C         3.227994         0.001966         0.104708
 C         4.629066         0.050956         0.541059
 O         4.425249        -0.138457         1.936994
 C         3.034022        -0.121560         2.400765
 C         2.380005         0.500518         1.254640
 O         2.340175         0.645252        -0.860672
 H        -0.591690         0.622109         0.721433
 H        -0.223732         0.420866        -1.069988
 H        -0.506915        -0.968416        -0.118265
 H         2.515097        -2.175564         0.662170
 H         2.381027        -1.578815        -1.158861
 H         5.169629        -0.775613         0.217545
 H         5.182026         0.939734         0.272373
 H         2.891363        -1.249030         2.680976
 H         2.958077         0.371132         3.347743
 H         2.393046         1.599498         1.375787
