19
Iteration:  1595charge 0 multiplicity 1
 C        -0.028609         0.126576        -0.099649
 C         1.451744        -0.132731         0.108809
 C         2.267062        -1.390493         0.054855
 C         3.159046        -0.147092         0.116276
 C         4.591555        -0.137762         0.541575
 O         4.441822         0.201130         1.963606
 C         3.093823        -0.086899         2.476873
 C         2.363932         0.513729         1.221119
 O         2.289258         0.538505        -0.943328
 H        -0.690363        -0.343656         0.589504
 H        -0.319349         1.269881        -0.025966
 H        -0.451372        -0.207983        -1.117440
 H         2.245122        -1.896707         1.015748
 H         2.309512        -2.051805        -0.806650
 H         5.033700        -1.100147         0.521008
 H         5.315334         0.519639        -0.024013
 H         3.022089        -1.117227         2.626616
 H         2.963333         0.418170         3.392592
 H         2.515148         1.579689         1.019137
