19
Iteration:   820
 C        -0.052574         0.189872        -0.177252
 C         1.359501        -0.148395         0.066259
 C         2.187341        -1.443397        -0.046155
 C         3.081658        -0.212813         0.157447
 C         4.580609        -0.027914         0.594360
 O         4.553106         0.334917         1.927019
 C         3.170343        -0.157506         2.484660
 C         2.313389         0.396926         1.313100
 O         2.378355         0.510934        -0.860772
 H        -0.619751        -0.156730         0.622565
 H        -0.244465         1.381655        -0.094231
 H        -0.531820        -0.208079        -1.098599
 H         2.064693        -2.237086         0.687046
 H         2.181640        -1.964939        -0.998687
 H         5.222673        -1.024252         0.490666
 H         5.029294         0.828403         0.033345
 H         3.233747        -1.199875         2.410285
 H         3.057211         0.194568         3.510269
 H         2.446979         1.540385         1.225161
