19
Iteration:  1310
 C        -0.121207         0.114557        -0.167359
 C         1.350325        -0.187747         0.165205
 C         2.224091        -1.400144         0.033370
 C         3.133922        -0.040980         0.079597
 C         4.635853        -0.080291         0.515761
 O         4.559961         0.047841         2.010445
 C         3.112042         0.020147         2.511877
 C         2.277403         0.502794         1.216746
 O         2.372853         0.524243        -0.937369
 H        -0.622355        -0.334348         0.645162
 H        -0.161502         1.297815        -0.254334
 H        -0.457920        -0.476533        -1.034994
 H         2.168392        -2.204875         0.798623
 H         2.338043        -1.889669        -0.957253
 H         5.056201        -1.039343         0.304115
 H         5.279544         0.744907         0.097364
 H         3.115569        -1.039198         3.072530
 H         3.136112         0.847618         3.268444
 H         2.298374         1.642339         1.183322
