19
Iteration:  4042charge 0 multiplicity 1
 C        -0.019400         0.166795        -0.033846
 C         1.418025        -0.164401         0.014512
 C         2.289040        -1.386708         0.117492
 C         3.157686        -0.093506         0.041118
 C         4.621680         0.035015         0.532194
 O         4.517513        -0.096095         1.984845
 C         3.027713        -0.026224         2.452475
 C         2.272578         0.487073         1.250701
 O         2.329639         0.570392        -0.961139
 H        -0.491772         0.008770        -1.085071
 H        -0.400570        -0.537416         0.727391
 H        -0.354888         1.212762         0.211873
 H         2.402340        -1.768888         1.081820
 H         2.342873        -2.052346        -0.742071
 H         5.207212        -0.822907         0.270166
 H         5.060181         0.989317         0.196727
 H         2.790311        -1.178174         2.578928
 H         2.801155         0.593545         3.288813
 H         2.307630         1.587271         1.146327
