19
Iteration:  2619charge 0 multiplicity 1
 C        -0.068885         0.115907        -0.266503
 C         1.371366        -0.048092         0.133595
 C         2.318450        -1.397800         0.210805
 C         3.202755        -0.144494         0.201238
 C         4.637570         0.033671         0.485029
 O         4.480239        -0.201868         1.938750
 C         3.072495         0.097981         2.401489
 C         2.405600         0.609810         1.203995
 O         2.213269         0.499787        -0.884658
 H        -0.604453         0.255270         0.676171
 H        -0.380361         0.977256        -0.851292
 H        -0.422499        -0.817630        -0.605903
 H         2.314011        -2.134916         1.032969
 H         2.270475        -1.914102        -0.800180
 H         5.209747        -0.883722         0.175162
 H         5.154027         0.951599         0.343313
 H         2.801752        -0.928792         2.847666
 H         3.193164         0.694711         3.248141
 H         2.517534         1.665630         1.186074
