19
Iteration:  1488
 C        -0.065303         0.005210        -0.137671
 C         1.436451        -0.033926         0.174594
 C         2.358558        -1.365700         0.210918
 C         3.121742        -0.087087         0.083019
 C         4.609626         0.140552         0.597323
 O         4.450359        -0.394580         1.933805
 C         3.108811         0.148749         2.399816
 C         2.372266         0.687578         1.192544
 O         2.254522         0.441209        -1.027600
 H        -0.698840        -0.383535         0.584549
 H        -0.353957         1.049006        -0.173401
 H        -0.139992        -0.382504        -1.166905
 H         2.488044        -1.771482         1.182688
 H         2.249043        -1.956545        -0.677234
 H         5.360920        -0.571086         0.239127
 H         4.838543         1.193565         0.566040
 H         2.526580        -0.672492         2.973465
 H         3.178420         0.879588         3.211438
 H         2.390771         1.748031         1.061706
