19
Iteration:  2730
 C        -0.045045         0.192527        -0.017695
 C         1.370632        -0.105490         0.068307
 C         2.201705        -1.429324         0.092073
 C         3.184372        -0.213415         0.089019
 C         4.649569        -0.107782         0.534491
 O         4.482477         0.087027         1.957710
 C         3.069489         0.041959         2.448275
 C         2.322768         0.511590         1.175520
 O         2.386000         0.501639        -0.934219
 H        -0.557846        -0.787524         0.247713
 H        -0.357232         0.976102         0.603224
 H        -0.408583         0.482749        -1.066920
 H         2.174148        -2.167054         0.959556
 H         2.177896        -2.059958        -0.807500
 H         5.375092        -0.937590         0.215500
 H         5.069548         0.827245         0.018081
 H         2.746538        -0.962002         2.820512
 H         2.912275         0.769631         3.275755
 H         2.358955         1.599948         1.229555
