19
Iteration:  1558
 C        -0.140681         0.045413         0.009602
 C         1.377646        -0.080815         0.069093
 C         2.161575        -1.377365        -0.052882
 C         3.293453        -0.163077         0.146903
 C         4.760741        -0.036627         0.574837
 O         4.475838         0.068044         2.016240
 C         3.010707         0.006645         2.424311
 C         2.343517         0.581973         1.198336
 O         2.348211         0.489059        -0.988847
 H        -0.531836         0.014628         1.070997
 H        -0.306863         1.008206        -0.427228
 H        -0.456106        -0.747187        -0.624931
 H         2.015506        -2.074838         0.836560
 H         2.128033        -1.965362        -1.005236
 H         5.230375        -1.007538         0.330980
 H         5.293542         0.855812         0.335897
 H         2.517589        -1.010382         2.610711
 H         2.999646         0.501403         3.461609
 H         2.668991         1.642055         1.079978
