19
Iteration:  2855charge 0 multiplicity 1
 C        -0.130702         0.093968         0.057081
 C         1.354683        -0.114536         0.090563
 C         2.324547        -1.370807         0.033677
 C         3.276362        -0.126453         0.102120
 C         4.745760         0.051636         0.625422
 O         4.410405        -0.264387         2.034603
 C         3.005103         0.132491         2.355679
 C         2.426476         0.627196         1.010528
 O         2.262399         0.476957        -0.954173
 H        -0.530801         0.228182         1.020067
 H        -0.476009         1.084339        -0.396381
 H        -0.733188        -0.675098        -0.276290
 H         2.442716        -1.917778         0.889126
 H         2.386643        -1.965885        -0.863518
 H         5.442113        -0.689066         0.319959
 H         5.044148         1.170081         0.496108
 H         2.558003        -0.775595         2.702548
 H         2.946984         0.737049         3.246173
 H         2.552175         1.707885         0.823253
