19
Iteration:  2932charge 0 multiplicity 1
 C        -0.028174         0.021284        -0.196106
 C         1.370954        -0.084079         0.156091
 C         2.178550        -1.379171         0.138834
 C         3.145902        -0.098677         0.113996
 C         4.577317        -0.016883         0.535005
 O         4.516440        -0.222987         1.999614
 C         3.184866         0.180282         2.528256
 C         2.461110         0.600300         1.214310
 O         2.235703         0.490473        -0.998300
 H        -0.742872        -0.427799         0.463336
 H        -0.571999         1.031397        -0.230312
 H        -0.066375        -0.344827        -1.217020
 H         2.039178        -2.022335         0.956169
 H         2.156374        -1.781804        -0.853005
 H         5.318066        -0.696703         0.099009
 H         5.062988         1.028281         0.231646
 H         2.726326        -0.663172         2.852094
 H         3.259112         1.026186         3.190340
 H         2.523682         1.722559         1.158886
