19
Iteration:  3887charge 0 multiplicity 1
 C        -0.107326         0.144328        -0.057503
 C         1.350039        -0.188253         0.157366
 C         2.303421        -1.408472         0.034602
 C         3.147715        -0.036311         0.005901
 C         4.673818         0.038289         0.605483
 O         4.504177        -0.143406         1.986505
 C         3.108294         0.006969         2.402921
 C         2.251715         0.491240         1.279197
 O         2.403571         0.562514        -0.976522
 H        -0.786924        -0.452285        -0.723178
 H        -0.818205         0.189576         0.824665
 H        -0.050285         1.114222        -0.506783
 H         2.414527        -2.134381         0.784686
 H         2.213839        -1.880044        -0.947166
 H         5.388747        -0.636449         0.195644
 H         5.166781         1.000123         0.427055
 H         2.656985        -0.934111         2.751024
 H         2.989938         0.715275         3.166629
 H         1.999645         1.571616         1.284757
