19
Iteration:  1937charge 0 multiplicity 1
 C        -0.125764         0.085921        -0.196022
 C         1.365985        -0.065339         0.105276
 C         2.145318        -1.412681         0.032788
 C         3.132244        -0.166278         0.150768
 C         4.602520        -0.057155         0.461588
 O         4.583011         0.063791         2.001471
 C         3.173766         0.091878         2.551314
 C         2.307685         0.496350         1.266184
 O         2.384971         0.467371        -0.919097
 H        -0.510526        -0.783045         0.440128
 H        -0.451978         1.046377        -0.012739
 H        -0.258912        -0.173887        -1.224839
 H         2.039812        -2.103674         0.875315
 H         2.121253        -1.758225        -0.992270
 H         5.175091        -0.893110         0.362393
 H         4.983203         0.851149        -0.042961
 H         3.030728        -1.016631         2.836132
 H         3.194941         0.873914         3.384412
 H         2.395792         1.626833         1.150820
