19
Iteration:  1105charge 0 multiplicity 1
 C        -0.091120         0.126717         0.007445
 C         1.384490        -0.110503         0.038277
 C         2.192226        -1.387152        -0.070174
 C         3.181963        -0.242524         0.111805
 C         4.613530        -0.166308         0.619309
 O         4.496709         0.217949         2.074446
 C         3.077956         0.057005         2.418965
 C         2.417568         0.413991         1.169180
 O         2.348789         0.558441        -0.954060
 H        -0.527690        -0.656003         0.607713
 H        -0.322154         1.157650         0.393842
 H        -0.412526         0.021854        -1.007009
 H         2.140244        -2.196909         0.691496
 H         2.155788        -1.882127        -1.065471
 H         5.186086        -1.067941         0.313436
 H         5.077408         0.695928         0.110345
 H         2.952456        -1.065018         2.616645
 H         2.940014         0.601737         3.372160
 H         2.390398         1.521947         1.058470
