19
Iteration:   399
 C        -0.110913        -0.121487        -0.028450
 C         1.416374        -0.010363         0.100723
 C         2.317157        -1.194277         0.137128
 C         3.257068         0.007233         0.105310
 C         4.689807        -0.039811         0.427684
 O         4.435781        -0.265214         1.951813
 C         2.929523         0.072361         2.407340
 C         2.295067         0.745928         1.241116
 O         2.406436         0.480430        -0.944460
 H        -0.451665        -0.565756         0.982708
 H        -0.749864         0.739614        -0.408320
 H        -0.328104        -0.969689        -0.703066
 H         2.472425        -1.880530         1.023161
 H         2.386450        -1.972513        -0.630202
 H         5.070440        -1.075703         0.120122
 H         5.193011         0.872116         0.273882
 H         2.557354        -0.877594         2.827652
 H         3.096040         0.759006         3.182366
 H         2.177826         1.854046         1.073076
