19
Iteration:  3565
 C        -0.096181         0.120893        -0.087023
 C         1.437890        -0.099354         0.077819
 C         2.290350        -1.384353         0.193562
 C         3.197257        -0.182371         0.137158
 C         4.567114         0.037464         0.468856
 O         4.519907        -0.221096         1.965754
 C         3.058440         0.155846         2.446720
 C         2.343597         0.606308         1.238745
 O         2.317556         0.452609        -0.989730
 H        -0.683794         0.627561         0.768985
 H        -0.314900         0.764494        -0.947097
 H        -0.735824        -0.838913        -0.446870
 H         2.141195        -1.884095         1.104825
 H         2.447703        -2.002986        -0.714681
 H         5.400034        -0.667025         0.142997
 H         4.809735         1.151005         0.219424
 H         2.780700        -0.703147         2.940572
 H         3.134741         0.946793         3.183962
 H         2.467550         1.675240         0.973820
