19
Iteration:   292charge 0 multiplicity 1
 C        -0.125831         0.133535        -0.119317
 C         1.392886        -0.055376         0.176386
 C         2.174519        -1.366034         0.062813
 C         3.261218        -0.206806         0.063504
 C         4.653315        -0.088974         0.590452
 O         4.420484         0.293829         2.003265
 C         3.129259        -0.099150         2.357082
 C         2.407450         0.485138         1.160779
 O         2.315986         0.445985        -0.869246
 H        -0.609415        -0.617110         0.644751
 H        -0.511925         1.072686         0.057488
 H        -0.280719        -0.144294        -1.110021
 H         2.168551        -2.072529         0.982376
 H         2.082663        -1.880876        -0.950923
 H         5.242846        -1.026963         0.371066
 H         5.343442         0.652461         0.201451
 H         2.971936        -1.255276         2.235570
 H         2.937436         0.116945         3.388203
 H         2.581154         1.542706         1.092284
