19
Iteration:  2246charge 0 multiplicity 1
 C        -0.075878         0.006307        -0.050382
 C         1.361004        -0.130271         0.199905
 C         2.315629        -1.355382         0.109718
 C         3.107318        -0.062413         0.053732
 C         4.609892        -0.105504         0.572231
 O         4.471166        -0.047335         1.993849
 C         3.078432         0.132817         2.420271
 C         2.347633         0.602008         1.205278
 O         2.405950         0.471444        -1.015791
 H        -0.736978         0.215382         0.771404
 H        -0.184677         1.064130        -0.525017
 H        -0.560191        -0.769599        -0.726198
 H         2.424717        -2.023833         0.991265
 H         2.303663        -1.882220        -0.858237
 H         4.919784        -1.010123         0.204153
 H         5.328214         0.652587         0.050325
 H         2.485944        -0.711644         2.721993
 H         2.996506         0.823086         3.184474
 H         2.489408         1.642464         0.963439
