19
Iteration:  3989charge 0 multiplicity 1
 C        -0.051823         0.086103        -0.091992
 C         1.425642        -0.122693         0.128644
 C         2.240862        -1.349955         0.019277
 C         3.175877        -0.180901         0.097528
 C         4.625808        -0.064972         0.517238
 O         4.507748        -0.012920         2.035787
 C         3.086497        -0.019770         2.426492
 C         2.370223         0.533052         1.216614
 O         2.306516         0.591407        -0.947991
 H        -0.352207         0.507837        -1.076175
 H        -0.627543        -0.797801         0.034218
 H        -0.500543         0.750380         0.717564
 H         2.125918        -1.990862         0.952653
 H         2.166819        -1.934090        -0.906613
 H         5.198315        -0.942681         0.313682
 H         4.972539         0.947906         0.194395
 H         2.737942        -0.975518         2.922489
 H         2.840502         0.834101         3.082052
 H         2.364465         1.613484         1.148337
