19
Iteration:  3934charge 0 multiplicity 1
 C        -0.030704         0.052921        -0.102695
 C         1.391455        -0.063961         0.248990
 C         2.192733        -1.354830         0.035414
 C         3.183561        -0.171335         0.033501
 C         4.612592        -0.022606         0.581495
 O         4.492142        -0.030908         1.986200
 C         3.081139        -0.047084         2.436598
 C         2.390037         0.576973         1.177653
 O         2.331469         0.591984        -0.928016
 H        -0.164511        -0.014886        -1.223564
 H        -0.548560        -0.865006         0.174101
 H        -0.577100         0.929726         0.234432
 H         2.195767        -2.049888         0.921264
 H         1.913820        -1.958968        -0.879864
 H         5.241730        -0.848351         0.217713
 H         5.265406         0.840161         0.264367
 H         2.722365        -1.013700         2.692423
 H         2.967644         0.571646         3.313983
 H         2.384165         1.635328         0.980066
