19
Iteration:  4447
 C        -0.093746        -0.012614        -0.032797
 C         1.387352        -0.123178         0.131740
 C         2.407630        -1.208528        -0.051370
 C         3.163128         0.094600         0.093252
 C         4.644797         0.098681         0.553012
 O         4.390137        -0.388465         1.917332
 C         3.069596        -0.043780         2.432759
 C         2.266956         0.523467         1.303206
 O         2.399299         0.641360        -0.933481
 H        -0.400892         0.896635         0.395518
 H        -0.368694        -0.171797        -1.070475
 H        -0.676123        -0.797547         0.561759
 H         2.523403        -2.043722         0.818703
 H         2.261708        -1.736264        -1.052350
 H         5.296186        -0.610411         0.038691
 H         5.129926         1.061989         0.466936
 H         2.678373        -0.965831         2.928708
 H         3.214258         0.621773         3.362261
 H         1.988334         1.590330         1.200509
