19
Iteration:    48charge 0 multiplicity 1
 C        -0.083350         0.253575        -0.105279
 C         1.387199        -0.137647         0.043819
 C         2.276702        -1.463218        -0.039617
 C         3.166177        -0.259789         0.139698
 C         4.546079         0.081005         0.560023
 O         4.507553         0.198300         2.038984
 C         3.154444        -0.030873         2.507473
 C         2.376057         0.365122         1.207361
 O         2.291934         0.413346        -0.930991
 H        -0.726264        -0.105524         0.676805
 H        -0.124378         1.464000        -0.133402
 H        -0.475858        -0.126876        -1.177072
 H         2.287980        -1.921864         0.965164
 H         2.172099        -2.219035        -0.885668
 H         5.210639        -0.825713         0.311257
 H         4.778293         1.057254         0.227247
 H         3.101126        -1.101741         2.704792
 H         2.963729         0.637030         3.380378
 H         2.566568         1.495050         0.996334
