19
Iteration:  2514charge 0 multiplicity 1
 C        -0.133138         0.004130         0.015955
 C         1.379280        -0.077225         0.145125
 C         2.322554        -1.320332         0.067076
 C         3.247851        -0.033103         0.101905
 C         4.665093        -0.194603         0.542499
 O         4.439466        -0.121156         2.073581
 C         2.994356         0.149815         2.355673
 C         2.417800         0.684669         1.068644
 O         2.259444         0.475577        -0.974927
 H        -0.491400        -0.875162         0.658800
 H        -0.437657         0.998032         0.275859
 H        -0.499469        -0.136819        -1.097326
 H         2.545901        -2.073509         0.813777
 H         2.302959        -1.664741        -0.948822
 H         5.105609        -1.174876         0.386093
 H         5.496473         0.590496         0.483600
 H         2.602790        -0.746785         2.757349
 H         3.182921         0.926475         3.179060
 H         2.702354         1.764385         0.903516
