19
Iteration:    40charge 0 multiplicity 1
 C        -0.075645         0.250504        -0.123674
 C         1.363647        -0.183012         0.052462
 C         2.251616        -1.463443        -0.020802
 C         3.160372        -0.342101         0.077135
 C         4.473858         0.046142         0.594704
 O         4.539798         0.175141         2.069267
 C         3.188923         0.010704         2.506399
 C         2.356253         0.404077         1.219112
 O         2.335673         0.469815        -0.965615
 H        -0.693693        -0.175031         0.801677
 H        -0.055849         1.358983        -0.062893
 H        -0.496037        -0.167680        -1.063927
 H         2.237118        -2.122749         0.895032
 H         2.205400        -1.911542        -1.017585
 H         5.463584        -0.323876         0.248608
 H         4.641784         1.029956         0.078648
 H         2.993488        -1.009348         2.969412
 H         3.090354         0.668554         3.380975
 H         2.404314         1.493042         1.001832
