19
Iteration:  2206
 C        -0.090137         0.011027         0.083475
 C         1.428292        -0.023420         0.014307
 C         2.191628        -1.363814        -0.028679
 C         3.262920        -0.207799         0.134787
 C         4.616500        -0.178229         0.699767
 O         4.499458         0.173010         2.070787
 C         3.034757         0.032982         2.387988
 C         2.426054         0.570335         1.088261
 O         2.262521         0.526687        -1.086594
 H        -0.422311        -0.022950         1.146849
 H        -0.427231         0.975837        -0.391984
 H        -0.527877        -0.859832        -0.339579
 H         2.190880        -2.061060         0.809752
 H         2.063912        -1.901922        -0.932094
 H         5.094639        -1.288077         0.654446
 H         5.278202         0.541575         0.236131
 H         2.933227        -1.076393         2.669944
 H         2.916078         0.621436         3.403184
 H         2.693261         1.634186         0.982759
