19
Iteration:  4062
 C        -0.072250         0.102580        -0.047809
 C         1.375464        -0.123273         0.183408
 C         2.363380        -1.359553         0.105120
 C         3.256436        -0.024894         0.083441
 C         4.642613        -0.006855         0.539780
 O         4.411172        -0.119427         1.954942
 C         3.063511        -0.072205         2.399150
 C         2.319290         0.550388         1.157437
 O         2.318487         0.546201        -0.905174
 H        -0.473111        -0.377086        -1.032381
 H        -0.890583         0.026824         0.730782
 H        -0.251859         1.104724        -0.430274
 H         2.370742        -2.086854         0.889074
 H         2.383344        -1.811432        -0.944079
 H         5.167391        -0.884299         0.110311
 H         5.015578         0.989765         0.373179
 H         2.655135        -1.076105         2.617492
 H         3.069574         0.659675         3.162549
 H         2.325006         1.667401         1.237821
