19
Iteration:  2343
 C        -0.050385        -0.019611        -0.022490
 C         1.457696        -0.108702         0.103532
 C         2.341632        -1.375308         0.130531
 C         3.179721        -0.136664         0.023494
 C         4.602342        -0.178898         0.568311
 O         4.429535        -0.108420         1.990547
 C         3.006912         0.255167         2.379680
 C         2.342018         0.708617         1.151416
 O         2.351656         0.516151        -0.949285
 H        -0.583622        -0.759534         0.523952
 H        -0.537661         0.907886         0.508955
 H        -0.706908        -0.014935        -0.962400
 H         2.495124        -2.026194         1.076447
 H         2.297244        -1.987093        -0.807774
 H         4.999419        -1.289257         0.308687
 H         5.244881         0.613423         0.167913
 H         2.612292        -0.706372         2.875859
 H         3.086161         1.003188         3.231705
 H         2.462640         1.839413         0.951566
