19
Iteration:   856
 C        -0.044205         0.119645        -0.208223
 C         1.380456        -0.111241         0.129188
 C         2.192184        -1.437906        -0.012581
 C         3.149529        -0.186693         0.078425
 C         4.592144        -0.105293         0.603562
 O         4.512421         0.268656         1.934627
 C         3.178440        -0.108774         2.493866
 C         2.369017         0.431198         1.313642
 O         2.272146         0.596087        -0.866945
 H        -0.637368        -0.590306         0.389955
 H        -0.336945         1.146712        -0.051822
 H        -0.149601        -0.113770        -1.229560
 H         2.333064        -1.997537         0.913953
 H         1.974542        -1.880260        -1.021743
 H         5.107320        -1.100967         0.423498
 H         5.152953         0.671078         0.044205
 H         3.150265        -1.159310         2.595025
 H         2.921924         0.322543         3.496374
 H         2.543063         1.506361         1.140106
