19
Iteration:  4315charge 0 multiplicity 1
 C        -0.083837         0.105584        -0.063552
 C         1.466888        -0.068714         0.063379
 C         2.248147        -1.334993        -0.208343
 C         3.140626        -0.039377         0.112857
 C         4.612315         0.038712         0.579789
 O         4.491686        -0.047996         2.057853
 C         3.121143        -0.219784         2.505981
 C         2.349491         0.408832         1.251621
 O         2.258311         0.661999        -0.898684
 H        -0.269219         1.058458        -0.463902
 H        -0.400274        -0.542515        -0.861581
 H        -0.715659        -0.142809         0.806153
 H         2.349457        -1.967227         0.731015
 H         2.514687        -1.718172        -1.141061
 H         5.209082        -0.861285         0.342427
 H         5.109833         1.034987         0.304267
 H         2.915865        -1.280199         2.592290
 H         3.044292         0.257667         3.451182
 H         2.406519         1.498127         1.347659
