19
Iteration:  3745charge 0 multiplicity 1
 C        -0.067494         0.124069        -0.077980
 C         1.397966        -0.055862         0.045423
 C         2.246238        -1.395228         0.165491
 C         3.186425        -0.047189         0.137641
 C         4.601183         0.130124         0.498195
 O         4.487529        -0.246443         1.950263
 C         3.052270        -0.001642         2.418679
 C         2.358499         0.598841         1.195479
 O         2.354456         0.464959        -0.921358
 H        -0.435039         0.286983        -1.145393
 H        -0.309028        -1.021893         0.020097
 H        -0.613952         0.850176         0.616015
 H         2.161106        -2.092095         1.050587
 H         2.092057        -1.958912        -0.750432
 H         5.416778        -0.538886         0.183420
 H         5.078017         1.201188         0.413681
 H         2.703457        -0.975158         2.690212
 H         3.189967         0.636112         3.301150
 H         2.370593         1.711826         1.114334
