19
Iteration:  3731charge 0 multiplicity 1
 C        -0.055113         0.069692        -0.114227
 C         1.445476        -0.038753         0.219874
 C         2.175213        -1.414287         0.129460
 C         3.221691        -0.174660         0.084689
 C         4.663835         0.107891         0.509801
 O         4.452524        -0.158274         1.924748
 C         3.047804        -0.015338         2.401444
 C         2.311844         0.587522         1.202919
 O         2.387544         0.523548        -0.917517
 H        -0.039898         0.601996        -1.046540
 H        -0.670334        -0.879531        -0.133802
 H        -0.579129         0.741513         0.745195
 H         2.142039        -1.988800         1.030318
 H         2.183790        -1.978482        -0.755307
 H         5.361683        -0.613935        -0.045441
 H         4.844822         1.250385         0.270374
 H         2.663145        -0.909704         2.800583
 H         3.000997         0.597681         3.258446
 H         2.352297         1.701832         1.105761
