19
Iteration:  2132
 C        -0.133861         0.185217        -0.275779
 C         1.334826        -0.109294         0.202935
 C         2.156038        -1.446870         0.183886
 C         3.181288        -0.173050         0.107017
 C         4.629972         0.078357         0.574774
 O         4.593398         0.060951         1.936638
 C         3.153113         0.010426         2.479347
 C         2.401409         0.510543         1.215379
 O         2.287758         0.365813        -0.944593
 H        -0.991213        -0.553112         0.016762
 H        -0.342799         1.102145         0.160541
 H        -0.162965         0.158650        -1.357703
 H         2.001135        -2.197986         1.022231
 H         2.227274        -1.940189        -0.833227
 H         5.475549        -0.577475         0.377428
 H         4.857621         1.015622         0.145744
 H         2.908445        -0.935586         2.823075
 H         3.341093         0.607157         3.397277
 H         2.341254         1.662935         1.079847
