19
Iteration:  4340
 C        -0.142283         0.136976        -0.133532
 C         1.450259        -0.151913         0.224717
 C         2.359013        -1.307617        -0.123709
 C         3.162644        -0.019203         0.084023
 C         4.687426         0.051799         0.574196
 O         4.494939        -0.106280         2.028326
 C         3.055206        -0.207569         2.375824
 C         2.287258         0.430637         1.244924
 O         2.279565         0.652558        -0.843462
 H        -0.240260         1.080538        -0.718929
 H        -0.767525        -0.658093        -0.705069
 H        -0.661285         0.210641         0.901585
 H         2.516237        -2.059269         0.614427
 H         2.290817        -1.591841        -1.205404
 H         5.376781        -0.764695         0.408141
 H         5.113607         1.110926         0.351147
 H         2.784655        -1.283064         2.440857
 H         2.943211         0.332752         3.283865
 H         2.362705         1.523559         1.273809
