19
Iteration:  3773
 C        -0.148703         0.091884        -0.061211
 C         1.359462        -0.119924         0.176685
 C         2.404731        -1.332418         0.076786
 C         3.203014         0.009163         0.033426
 C         4.644536         0.013942         0.555590
 O         4.457170        -0.295071         2.011559
 C         3.109912         0.045851         2.468794
 C         2.306941         0.581050         1.148451
 O         2.268081         0.558227        -1.011709
 H        -0.172152        -0.223630        -1.080071
 H        -0.710677        -0.690932         0.403628
 H        -0.363009         1.167312         0.111227
 H         2.562182        -1.976763         0.930687
 H         2.264957        -1.943673        -0.826716
 H         5.391455        -0.770772         0.309146
 H         5.140531         0.929079         0.483146
 H         2.717745        -0.845162         3.090610
 H         3.234828         0.820867         3.268318
 H         2.192165         1.681884         1.079088
