19
Iteration:  4719charge 0 multiplicity 1
 C        -0.006576         0.012642        -0.050745
 C         1.390700        -0.112170         0.159474
 C         2.377623        -1.290626         0.010805
 C         3.237977         0.086055         0.011375
 C         4.642651         0.188996         0.562064
 O         4.371430        -0.396703         1.975472
 C         3.097102        -0.136308         2.462150
 C         2.315668         0.453840         1.240862
 O         2.212843         0.718236        -0.963863
 H        -0.316336         1.057624        -0.282945
 H        -0.356521        -0.526279        -0.977340
 H        -0.540199        -0.366543         0.863414
 H         2.406301        -2.029735         0.809192
 H         2.334548        -1.843509        -0.858736
 H         5.330609        -0.590000         0.043763
 H         5.116039         1.226603         0.628070
 H         2.912604        -1.023653         2.928386
 H         3.130880         0.776186         3.153800
 H         2.389599         1.578994         1.305004
