19
Iteration:  2342
 C        -0.050321        -0.015616        -0.019230
 C         1.454564        -0.115033         0.102781
 C         2.339967        -1.375479         0.139631
 C         3.175251        -0.131838         0.027667
 C         4.594976        -0.173260         0.555077
 O         4.426318        -0.112010         1.985851
 C         3.007070         0.258419         2.378426
 C         2.339060         0.706653         1.155447
 O         2.359239         0.511310        -0.949727
 H        -0.597090        -0.737573         0.512784
 H        -0.492605         0.876031         0.506036
 H        -0.653965        -0.012452        -0.989990
 H         2.480890        -2.051378         1.051931
 H         2.312590        -1.960060        -0.826050
 H         5.053765        -1.291098         0.313809
 H         5.257500         0.606208         0.213308
 H         2.617886        -0.702825         2.881251
 H         3.111873         1.021548         3.255895
 H         2.440238         1.855789         0.974030
