19
Iteration:   189
 C        -0.068199         0.063745        -0.034532
 C         1.413255        -0.088539         0.099481
 C         2.406685        -1.285522         0.307607
 C         3.190221        -0.061448         0.085415
 C         4.572178         0.243130         0.574114
 O         4.410920        -0.411887         1.855869
 C         3.044023         0.059636         2.392540
 C         2.323902         0.638365         1.135367
 O         2.348434         0.407786        -1.018836
 H        -0.411237        -0.418576         0.761166
 H        -0.303895         1.201074        -0.057970
 H        -0.416514        -0.428922        -1.009806
 H         2.197652        -1.703624         1.323914
 H         2.580762        -2.158820        -0.360685
 H         5.320388        -0.382995         0.097803
 H         4.665005         1.293675         0.558974
 H         2.530445        -0.839649         2.663565
 H         3.117200         0.720366         3.311492
 H         2.411012         1.773606         1.140942
