19
Iteration:   937charge 0 multiplicity 1
 C        -0.099854         0.015657         0.116475
 C         1.440608        -0.068077         0.127726
 C         2.419205        -1.331735         0.098948
 C         3.237869        -0.019878         0.072412
 C         4.657114         0.166828         0.623110
 O         4.331940        -0.443752         1.912730
 C         2.992167         0.095664         2.391250
 C         2.385844         0.696859         1.102521
 O         2.308541         0.481833        -1.060979
 H        -0.546807        -0.418358         1.032705
 H        -0.524207         1.011195        -0.121045
 H        -0.373543        -0.686276        -0.745230
 H         2.135896        -2.046498         0.980426
 H         2.620762        -1.967339        -0.788421
 H         5.465786        -0.460457         0.253526
 H         5.034950         1.235527         0.686097
 H         2.485942        -0.853063         2.893049
 H         3.138988         0.939143         3.067334
 H         2.342005         1.800081         1.265623
