19
Iteration:   219
 C        -0.060025        -0.013281        -0.095479
 C         1.381064        -0.139983         0.210471
 C         2.281532        -1.326745         0.060519
 C         3.195826        -0.076936         0.049086
 C         4.662674         0.089791         0.627132
 O         4.473202        -0.305703         2.000796
 C         3.108022         0.181770         2.394039
 C         2.348384         0.621642         1.153985
 O         2.253369         0.487040        -0.971543
 H        -0.612786        -0.260565         0.911670
 H        -0.208397         1.037017        -0.384203
 H        -0.351525        -0.658448        -0.940809
 H         2.250322        -2.051680         0.796586
 H         2.187698        -1.795947        -0.927724
 H         5.393062        -0.577297         0.257275
 H         5.012984         1.190696         0.468199
 H         2.663169        -0.650295         2.871516
 H         3.184079         0.957271         3.163648
 H         2.270636         1.699605         1.071496
