19
Iteration:  2771charge 0 multiplicity 1
 C        -0.127423         0.097435        -0.268333
 C         1.425813        -0.067360         0.197518
 C         2.172722        -1.330854         0.137021
 C         3.196279        -0.098528         0.093940
 C         4.642659        -0.060916         0.506783
 O         4.533660        -0.031067         1.973593
 C         3.148665         0.007298         2.525331
 C         2.434680         0.544900         1.247185
 O         2.227294         0.446357        -0.975815
 H        -0.637699        -0.824675         0.050001
 H        -0.706201         0.918173         0.260474
 H        -0.336640         0.372967        -1.319777
 H         2.131561        -1.868415         1.150632
 H         2.007569        -2.010487        -0.744165
 H         5.366316        -0.904242         0.275411
 H         5.156924         0.807963         0.216162
 H         3.008253        -0.902898         3.019065
 H         3.316439         0.884159         3.134329
 H         2.223893         1.615057         1.272165
