19
Iteration:  4882
 C        -0.037786         0.095070        -0.088224
 C         1.458511        -0.145459         0.096480
 C         2.269233        -1.334409        -0.150991
 C         3.162553        -0.036180         0.110829
 C         4.534888         0.054313         0.581216
 O         4.488694         0.014298         1.987711
 C         3.138779        -0.265585         2.409511
 C         2.266077         0.421279         1.257387
 O         2.284862         0.691466        -0.801743
 H        -0.066151         1.153732         0.073507
 H        -0.297139        -0.106269        -1.112766
 H        -0.539112        -0.511574         0.652597
 H         2.413247        -2.061900         0.717484
 H         2.431461        -1.811885        -1.153969
 H         4.885295        -0.873200         0.173984
 H         5.084927         0.845683         0.244625
 H         3.076872        -1.394946         2.533852
 H         3.193941         0.305803         3.399218
 H         2.352230         1.541293         1.458666
