19
Iteration:  3895charge 0 multiplicity 1
 C        -0.155370         0.147143        -0.078137
 C         1.376947        -0.183062         0.116212
 C         2.265231        -1.418438        -0.029774
 C         3.180547        -0.051440         0.087037
 C         4.629757         0.061576         0.619474
 O         4.571470        -0.132978         2.003398
 C         3.085878         0.000608         2.398780
 C         2.216199         0.508098         1.213537
 O         2.414850         0.553935        -0.951248
 H        -0.634449        -0.463503        -0.812528
 H        -0.679013        -0.015829         0.930313
 H        -0.275976         1.292910        -0.269005
 H         2.304626        -2.089476         0.868223
 H         2.189461        -1.969164        -0.914383
 H         5.218628        -0.811793         0.220403
 H         4.956962         1.020074         0.283322
 H         2.921423        -1.061080         3.013726
 H         3.194335         0.788372         3.237953
 H         2.262883         1.634725         1.231582
