19
Iteration:  2820charge 0 multiplicity 1
 C        -0.055040         0.053638         0.002895
 C         1.434482        -0.046593         0.171972
 C         2.249164        -1.308438         0.078785
 C         3.145761        -0.103837         0.115983
 C         4.608775        -0.009358         0.504733
 O         4.407483        -0.158609         1.941090
 C         3.045738         0.085963         2.464822
 C         2.321275         0.573129         1.189287
 O         2.416329         0.449102        -1.006746
 H        -0.418137        -0.479374         0.876789
 H        -0.421311         1.092628        -0.140192
 H        -0.256520        -0.402434        -0.977505
 H         2.322291        -2.006897         0.894737
 H         2.236839        -1.804773        -0.894202
 H         5.269749        -0.839982         0.289709
 H         5.305703         0.908888         0.300832
 H         2.832577        -0.818694         2.935469
 H         3.065862         0.972501         3.074614
 H         2.302488         1.629157         0.900049
