19
Iteration:  2798charge 0 multiplicity 1
 C        -0.114888         0.069302        -0.174440
 C         1.404552        -0.139761         0.174095
 C         2.276475        -1.402074         0.175547
 C         3.149985        -0.099759         0.173107
 C         4.612083        -0.100603         0.499333
 O         4.533312        -0.124466         1.974214
 C         3.084276         0.071270         2.403119
 C         2.388687         0.710698         1.157572
 O         2.287800         0.540050        -0.920174
 H        -0.683862        -0.713181         0.342077
 H        -0.535622         1.043964         0.098317
 H        -0.349257         0.050664        -1.267243
 H         2.298690        -1.989943         1.077160
 H         2.370007        -2.045460        -0.690821
 H         5.314825        -0.856947         0.188792
 H         5.101874         0.911092         0.179144
 H         2.719495        -0.944915         2.607892
 H         3.212005         0.641871         3.317452
 H         2.226329         1.782071         0.939173
