19
Iteration:  1457charge 0 multiplicity 1
 C        -0.088641        -0.073778        -0.075538
 C         1.395701        -0.051983         0.184963
 C         2.269276        -1.356528         0.161656
 C         3.184510        -0.053492         0.148248
 C         4.630840         0.030324         0.476382
 O         4.386503        -0.302858         1.920416
 C         3.094285         0.197518         2.382677
 C         2.320656         0.628018         1.184325
 O         2.435229         0.549880        -0.949689
 H        -0.511648        -0.926598         0.542341
 H        -0.444097         0.863692         0.121056
 H        -0.218486        -0.179633        -1.137330
 H         2.262396        -1.889850         1.140015
 H         2.194117        -2.035345        -0.697136
 H         5.256076        -0.871409         0.277388
 H         5.170602         0.921355         0.243050
 H         2.559230        -0.684697         2.928346
 H         3.049958         1.137829         2.976229
 H         2.281465         1.705190         1.072475
