19
Iteration:  2838
 C        -0.116998         0.057353         0.068857
 C         1.422829        -0.109902         0.021902
 C         2.272937        -1.363100         0.082081
 C         3.228303        -0.133924        -0.011952
 C         4.602838         0.008954         0.637182
 O         4.457823        -0.207971         2.064998
 C         3.064454         0.116253         2.423558
 C         2.401110         0.580002         1.140902
 O         2.322965         0.547562        -1.069785
 H        -0.307094        -0.025586         1.198251
 H        -0.291373         1.072026        -0.221911
 H        -0.610304        -0.714645        -0.657970
 H         2.138906        -1.967244         1.089632
 H         2.173056        -2.019186        -0.811041
 H         5.403215        -0.683628         0.191781
 H         4.924465         0.996507         0.406144
 H         2.481947        -0.814941         2.830946
 H         3.129701         0.992239         3.115258
 H         2.386634         1.695075         1.130422
