19
Iteration:   738
 C        -0.088763        -0.119649         0.030332
 C         1.458430        -0.031538         0.037887
 C         2.319079        -1.323283         0.183019
 C         3.256503        -0.025862         0.057012
 C         4.649675         0.072103         0.530454
 O         4.406484        -0.377699         1.983936
 C         3.007526         0.115690         2.413637
 C         2.358356         0.691647         1.162792
 O         2.321691         0.584032        -1.059595
 H        -0.531013        -0.711215         1.040975
 H        -0.499907         0.828531         0.020361
 H        -0.484648        -0.638399        -0.850527
 H         2.282537        -1.721651         1.183948
 H         1.996775        -1.880668        -0.715011
 H         5.283428        -0.753984         0.269716
 H         5.209648         1.040175         0.421675
 H         2.687576        -0.812514         3.002371
 H         3.025217         0.903470         3.209226
 H         2.277861         1.729235         1.186949
