19
Iteration:   200
 C        -0.083674         0.063939        -0.053312
 C         1.426111        -0.021445         0.108631
 C         2.341866        -1.348746         0.240503
 C         3.238990        -0.029902         0.076824
 C         4.606248         0.231995         0.582335
 O         4.360385        -0.362920         1.884382
 C         3.061587         0.032699         2.450773
 C         2.413667         0.622426         1.182809
 O         2.287540         0.373111        -1.057797
 H        -0.575731        -0.352881         0.721717
 H        -0.632713         1.080492        -0.177506
 H        -0.344910        -0.592026        -0.961632
 H         2.397834        -1.831021         1.272572
 H         2.367733        -2.031627        -0.654744
 H         5.513779        -0.216154         0.140987
 H         4.918225         1.241827         0.666503
 H         2.690749        -0.839686         2.980515
 H         3.286838         0.835438         3.234775
 H         2.375320         1.754171         1.031603
