19
Iteration:  3396
 C        -0.077668         0.114718        -0.182116
 C         1.359160        -0.076689         0.085346
 C         2.150524        -1.386680         0.189756
 C         3.214128        -0.143517         0.192325
 C         4.621893        -0.086320         0.501303
 O         4.565065         0.033487         1.973984
 C         3.115320         0.049947         2.450764
 C         2.379913         0.577591         1.220845
 O         2.295386         0.414755        -0.953467
 H        -0.685641        -0.745898         0.055331
 H        -0.512083         1.100928         0.244209
 H        -0.182758         0.085835        -1.254067
 H         2.266703        -2.003962         1.067860
 H         2.115046        -1.962715        -0.764191
 H         5.203644        -0.910836         0.124534
 H         5.111036         0.833408         0.032313
 H         2.813983        -0.844046         2.822216
 H         3.073947         0.879874         3.153354
 H         2.297788         1.643482         1.248047
