19
Iteration:  2341
 C        -0.051626        -0.009879        -0.016705
 C         1.449917        -0.120657         0.102694
 C         2.337977        -1.376371         0.148376
 C         3.172468        -0.126301         0.033675
 C         4.588091        -0.169781         0.541610
 O         4.422900        -0.115334         1.981189
 C         3.007828         0.260729         2.379483
 C         2.336609         0.704877         1.158475
 O         2.366407         0.506060        -0.951285
 H        -0.611843        -0.734285         0.512058
 H        -0.439196         0.844229         0.498876
 H        -0.585966        -0.010374        -1.013765
 H         2.462108        -2.066701         1.018524
 H         2.327618        -1.928781        -0.836539
 H         5.100795        -1.267945         0.322570
 H         5.274479         0.603690         0.255584
 H         2.624537        -0.688500         2.880000
 H         3.135757         1.031005         3.265139
 H         2.413274         1.853422         0.996248
