19
Iteration:  3959charge 0 multiplicity 1
 C        -0.165707         0.094613        -0.138016
 C         1.363380        -0.137429         0.123542
 C         2.361109        -1.304027         0.091916
 C         3.185816        -0.014345         0.131120
 C         4.624824        -0.127327         0.514119
 O         4.499783        -0.021661         1.981420
 C         3.114610        -0.098274         2.433590
 C         2.295422         0.651035         1.254877
 O         2.353821         0.510414        -0.967334
 H        -0.505507         0.379615        -1.089460
 H        -0.768613        -0.789377         0.005090
 H        -0.511738         0.845510         0.653278
 H         2.337042        -2.036957         0.999135
 H         2.383395        -1.894491        -0.813382
 H         5.113381        -1.131763         0.206131
 H         5.383278         0.603660         0.109831
 H         2.781860        -1.021996         2.695776
 H         3.024595         0.549709         3.360562
 H         2.179784         1.748045         1.265648
