19
Iteration:  4937
 C        -0.022106        -0.010180        -0.059046
 C         1.486892        -0.129282         0.133375
 C         2.224211        -1.302792        -0.139334
 C         3.189967         0.001049         0.059038
 C         4.598524         0.057638         0.560659
 O         4.489472        -0.158210         2.031352
 C         3.078029        -0.198958         2.379285
 C         2.334177         0.492915         1.310049
 O         2.256080         0.745166        -0.878120
 H        -0.338549         0.808471        -0.612021
 H        -0.340682        -0.854153        -0.606364
 H        -0.589047         0.272446         0.800913
 H         2.140836        -2.076096         0.678041
 H         2.472331        -1.646241        -1.216038
 H         5.310459        -0.539359         0.069174
 H         4.899801         1.061998         0.491382
 H         2.788819        -1.280037         2.554080
 H         3.113532         0.151548         3.486214
 H         2.361511         1.627912         1.529951
