19
Iteration:  2804charge 0 multiplicity 1
 C        -0.086226         0.054247        -0.133473
 C         1.385330        -0.125703         0.171965
 C         2.287998        -1.380006         0.142840
 C         3.218494        -0.093532         0.127879
 C         4.606890        -0.067830         0.498646
 O         4.484574        -0.130603         1.946811
 C         3.057150         0.120902         2.382741
 C         2.362860         0.692978         1.201883
 O         2.356192         0.493363        -0.903784
 H        -0.798501        -0.613156         0.435760
 H        -0.445225         1.060638         0.147985
 H        -0.493473        -0.177237        -1.156522
 H         2.187738        -2.145823         1.019405
 H         2.268155        -1.924249        -0.836468
 H         5.175524        -0.968272         0.063285
 H         4.969657         0.846677         0.152416
 H         2.546222        -0.870276         2.724604
 H         3.220940         0.618180         3.362376
 H         2.358193         1.795132         1.242821
