19
Iteration:   763
 C        -0.070819         0.033609         0.055006
 C         1.401330        -0.069774         0.142199
 C         2.353359        -1.369173         0.035963
 C         3.193961        -0.074804         0.097713
 C         4.618581        -0.015325         0.503707
 O         4.413885        -0.131861         2.050274
 C         3.046132         0.058493         2.349087
 C         2.343381         0.609043         1.142684
 O         2.339778         0.496189        -0.988936
 H        -0.518690        -0.444535         1.005343
 H        -0.355642         1.117707        -0.054149
 H        -0.400610        -0.537803        -0.873494
 H         2.343328        -2.004726         0.920967
 H         2.251375        -1.694201        -0.970341
 H         5.461820        -0.795607         0.316945
 H         5.018559         1.029657         0.399369
 H         2.718868        -0.977691         2.563737
 H         2.884299         0.547644         3.259530
 H         2.331879         1.701703         1.085022
