19
Iteration:  3799charge 0 multiplicity 1
 C        -0.029231        -0.020641        -0.012765
 C         1.429182        -0.101420         0.078290
 C         2.351218        -1.321027        -0.016503
 C         3.205207        -0.081065         0.127913
 C         4.598383        -0.027955         0.532630
 O         4.387018        -0.289943         1.932616
 C         3.061771         0.106043         2.458378
 C         2.314307         0.638971         1.159661
 O         2.287973         0.613371        -0.859105
 H        -0.254677        -0.744108        -0.827565
 H        -0.606704        -0.281637         0.930316
 H        -0.005713         1.044345        -0.347879
 H         2.255615        -2.058323         0.784232
 H         2.340270        -1.773073        -0.977553
 H         5.328145        -0.806591         0.244764
 H         5.083561         1.052079         0.451028
 H         2.689435        -0.674325         3.004901
 H         3.273894         0.842193         3.191156
 H         2.344945         1.742515         0.991463
