19
Iteration:  4914charge 0 multiplicity 1
 C        -0.233449         0.036573        -0.109639
 C         1.405013        -0.035169         0.132809
 C         2.323715        -1.272383        -0.167102
 C         3.219545        -0.075069         0.134084
 C         4.640576         0.068558         0.562905
 O         4.578321        -0.057048         1.991279
 C         3.042342        -0.281147         2.425841
 C         2.332110         0.439302         1.265082
 O         2.312599         0.688188        -0.810301
 H        -0.654788         0.887247        -0.491918
 H        -0.497750        -0.733801        -0.817603
 H        -0.884011         0.045393         0.731315
 H         2.457684        -2.051045         0.647957
 H         2.404148        -1.625593        -1.228324
 H         5.166636        -0.772339         0.184739
 H         5.167059         0.945905         0.247131
 H         2.900322        -1.351227         2.702496
 H         2.966381         0.274062         3.395069
 H         2.390548         1.560735         1.364627
