19
Iteration:   639
 C        -0.012719         0.016179        -0.034090
 C         1.465284        -0.059717         0.127970
 C         2.172565        -1.337768         0.102402
 C         3.178916        -0.089649         0.107874
 C         4.586792         0.064578         0.545373
 O         4.471527        -0.018027         1.945583
 C         3.022419        -0.035481         2.428258
 C         2.372331         0.552987         1.208712
 O         2.371351         0.430977        -0.992809
 H        -0.625150        -0.469222         0.855826
 H        -0.252499         1.034417        -0.114643
 H        -0.406634        -0.385931        -0.940896
 H         2.057995        -2.017361         0.947137
 H         2.094703        -1.792413        -0.892893
 H         5.271020        -0.646673         0.120386
 H         5.177968         1.058030         0.345640
 H         2.672669        -1.064355         2.717400
 H         3.037828         0.574647         3.285816
 H         2.486770         1.605391         1.144176
