19
Iteration:   154charge 0 multiplicity 1
 C        -0.068407         0.021958        -0.043124
 C         1.381933        -0.134969         0.168853
 C         2.357060        -1.307785        -0.009484
 C         3.213057        -0.086440         0.024754
 C         4.618955         0.003523         0.559310
 O         4.388350        -0.203352         1.998825
 C         3.104935         0.204716         2.490835
 C         2.368244         0.542133         1.227737
 O         2.286707         0.466218        -0.987502
 H        -0.706152        -0.463563         0.641054
 H        -0.391633         1.053160         0.074247
 H        -0.380477        -0.339715        -1.030947
 H         2.433512        -1.971034         0.788469
 H         2.343359        -1.815941        -0.996216
 H         5.287825        -0.740561         0.298935
 H         5.143422         0.907963         0.264769
 H         2.675564        -0.591653         3.042028
 H         3.180060         1.060466         3.217817
 H         2.326728         1.606720         1.044167
