19
Iteration:  4651
 C        -0.083918         0.006245        -0.057477
 C         1.421557         0.023130         0.054990
 C         2.317947        -1.324975        -0.104129
 C         3.233433        -0.114358         0.088889
 C         4.598636         0.087633         0.585115
 O         4.491247        -0.129268         1.991405
 C         3.039510        -0.264771         2.427818
 C         2.340342         0.464944         1.290208
 O         2.264307         0.758843        -0.875801
 H        -0.446982         0.780525        -0.702490
 H        -0.485074        -0.938766        -0.443122
 H        -0.379921         0.450983         0.945069
 H         2.372526        -2.125201         0.702785
 H         2.246034        -1.830338        -1.068244
 H         5.295460        -0.738487         0.395505
 H         5.086902         1.095424         0.342096
 H         2.808498        -1.295083         2.494108
 H         2.961395         0.264881         3.382796
 H         2.465780         1.573813         1.230943
