19
Iteration:   832
 C        -0.163998         0.179829        -0.166979
 C         1.331646        -0.160957         0.141645
 C         2.128674        -1.433025        -0.023349
 C         3.223935        -0.175369         0.202987
 C         4.645213        -0.085195         0.514978
 O         4.483480         0.370555         1.974447
 C         3.208723        -0.161488         2.397438
 C         2.346628         0.338569         1.287607
 O         2.397414         0.533511        -0.830062
 H        -0.904905        -0.262850         0.357618
 H        -0.239848         1.377287        -0.343075
 H        -0.161138        -0.173666        -1.213723
 H         2.093932        -2.101027         0.822228
 H         2.096366        -1.744632        -1.084084
 H         5.274723        -1.085687         0.330401
 H         5.137983         0.711113        -0.088329
 H         3.250205        -1.176802         2.565275
 H         2.849514         0.301765         3.341235
 H         2.286151         1.509452         1.313882
