19
Iteration:   580
 C        -0.022386         0.149726        -0.053587
 C         1.449871        -0.183330         0.135228
 C         2.235669        -1.429641        -0.170583
 C         3.161403        -0.204839         0.078390
 C         4.553604        -0.157605         0.584353
 O         4.547875         0.268286         1.992481
 C         3.135347         0.068874         2.478949
 C         2.252056         0.361969         1.305446
 O         2.320658         0.539207        -0.915226
 H        -0.595081        -0.142162         0.740637
 H        -0.098721         1.346440        -0.057516
 H        -0.362488        -0.302637        -1.050526
 H         2.284019        -2.266349         0.553731
 H         2.050032        -1.706641        -1.211882
 H         4.970353        -1.170577         0.540478
 H         5.059947         0.630601         0.158055
 H         3.079939        -0.940019         2.724970
 H         2.996816         0.724561         3.450028
 H         1.961214         1.489805         1.172914
