19
Iteration:  1543charge 0 multiplicity 1
 C        -0.015914         0.051556        -0.007873
 C         1.466294        -0.082396         0.087861
 C         2.269143        -1.375553         0.061340
 C         3.148957        -0.168596         0.062877
 C         4.551881        -0.047515         0.566455
 O         4.429842        -0.028974         2.003236
 C         3.005150         0.041962         2.418982
 C         2.404513         0.549512         1.131292
 O         2.390648         0.544945        -0.933701
 H        -0.421016         0.121665         0.988279
 H        -0.390880         0.994328        -0.378184
 H        -0.559405        -0.801473        -0.441411
 H         2.237891        -2.105219         0.842428
 H         2.247927        -1.742627        -0.949909
 H         5.321004        -0.844849         0.361414
 H         4.904984         0.906312         0.129601
 H         2.805086        -1.005071         2.781639
 H         2.908650         0.812069         3.181115
 H         2.286269         1.620076         1.072486
