19
Iteration:  4665charge 0 multiplicity 1
 C        -0.035720         0.029990        -0.020651
 C         1.388587        -0.072026         0.137071
 C         2.277134        -1.240455        -0.090635
 C         3.190958         0.017093        -0.000126
 C         4.575722         0.062453         0.557916
 O         4.437918        -0.175732         2.040350
 C         3.067821        -0.245649         2.450709
 C         2.387636         0.405165         1.226245
 O         2.355746         0.735189        -0.919005
 H        -0.295011         0.688453        -0.850327
 H        -0.443763        -0.972197        -0.328890
 H        -0.618176         0.027245         0.905006
 H         2.261715        -1.886223         0.747197
 H         2.224025        -1.757575        -0.976760
 H         5.373387        -0.568261        -0.017336
 H         4.861488         1.169644         0.442746
 H         2.811625        -1.228703         2.705603
 H         2.981715         0.435300         3.400719
 H         2.345830         1.504999         1.456899
