19
Iteration:  2928
 C        -0.051340         0.042058        -0.215657
 C         1.364609        -0.071750         0.171539
 C         2.190408        -1.326534         0.131771
 C         3.165560        -0.117331         0.132248
 C         4.632130         0.000179         0.528631
 O         4.528504        -0.229765         1.983540
 C         3.169643         0.172680         2.474824
 C         2.427133         0.597772         1.229933
 O         2.246682         0.471782        -0.977397
 H        -0.748896        -0.448435         0.501230
 H        -0.624003         1.015187        -0.263136
 H        -0.191731        -0.548531        -1.139324
 H         2.087275        -1.991840         1.036248
 H         2.087110        -1.814753        -0.887224
 H         5.310270        -0.736008         0.157700
 H         5.041991         0.989169         0.336201
 H         2.572904        -0.710525         3.023246
 H         3.341088         0.970695         3.241098
 H         2.371930         1.669128         1.010503
