19
Iteration:  1760charge 0 multiplicity 1
 C        -0.009705        -0.033225        -0.027110
 C         1.447804        -0.093022         0.178132
 C         2.302934        -1.289577         0.100756
 C         3.218898        -0.048271         0.053894
 C         4.597057         0.079580         0.552183
 O         4.361018        -0.363725         1.952056
 C         3.087343         0.160642         2.386135
 C         2.218236         0.658043         1.234253
 O         2.378139         0.480027        -1.006176
 H        -0.345394         0.198755         0.933098
 H        -0.311825         0.769374        -0.751641
 H        -0.352953        -1.016649        -0.341050
 H         2.433975        -2.056229         0.860303
 H         2.279415        -1.891871        -0.811684
 H         5.223930        -0.628186         0.024965
 H         5.165769         1.110494         0.404550
 H         2.640661        -0.553420         3.185224
 H         3.276896         1.018616         3.065877
 H         2.233303         1.805048         1.106119
