19
Iteration:  4216charge 0 multiplicity 1
 C        -0.082485         0.045222        -0.033107
 C         1.384814        -0.118557         0.132048
 C         2.369362        -1.300770        -0.093624
 C         3.158690        -0.065168         0.078158
 C         4.610465         0.055681         0.557871
 O         4.451326        -0.169300         1.995395
 C         3.047610        -0.101503         2.440952
 C         2.307456         0.485577         1.243009
 O         2.373429         0.648880        -0.905347
 H        -0.645128         0.468913         0.834381
 H        -0.096679         0.763540        -0.841636
 H        -0.511985        -0.916598        -0.512123
 H         2.208770        -1.980943         0.770594
 H         2.148849        -1.739557        -1.043179
 H         5.398612        -0.621708         0.124290
 H         4.933536         1.138399         0.300493
 H         2.733481        -1.074611         2.866782
 H         3.070095         0.563051         3.305631
 H         2.439735         1.556875         1.404511
