19
Iteration:   906
 C        -0.103537        -0.026860         0.041075
 C         1.385891        -0.094959         0.167599
 C         2.341477        -1.341994         0.063048
 C         3.198628        -0.088765         0.033177
 C         4.616898         0.023237         0.522166
 O         4.414433        -0.190006         2.039363
 C         3.043329         0.039602         2.401285
 C         2.424530         0.581720         1.127867
 O         2.352425         0.596485        -1.003593
 H        -0.578244        -0.679624         0.727099
 H        -0.441221         1.099687         0.233524
 H        -0.291350        -0.362590        -1.031685
 H         2.179422        -1.906276         0.981365
 H         2.433130        -1.808612        -0.905423
 H         5.226201        -0.848979         0.283279
 H         4.974792         1.051712         0.369636
 H         2.519644        -0.883947         2.883461
 H         2.884776         0.846395         3.122241
 H         2.364877         1.719652         1.039486
