19
Iteration:  2645
 C        -0.128933         0.071014        -0.133957
 C         1.334893        -0.061476         0.155827
 C         2.202366        -1.383408         0.021478
 C         3.158701        -0.192825         0.107076
 C         4.611520        -0.060908         0.545975
 O         4.562491        -0.068039         2.044583
 C         3.144304         0.080552         2.448604
 C         2.343789         0.570913         1.218623
 O         2.368113         0.546952        -1.011857
 H        -0.870451         0.237644         0.717049
 H        -0.332028         0.951966        -0.734851
 H        -0.377855        -0.920757        -0.677150
 H         2.075833        -1.941542         0.944872
 H         2.042278        -1.953181        -0.851230
 H         5.193537        -0.903931         0.393412
 H         5.069084         0.950758         0.336916
 H         3.003451        -0.905406         2.933214
 H         3.323741         0.674728         3.391168
 H         2.411945         1.699075         1.209610
