19
Iteration:  3640
 C        -0.055212         0.069594        -0.032965
 C         1.376257        -0.046888         0.190617
 C         2.147923        -1.331342         0.036021
 C         3.184728        -0.152515         0.139811
 C         4.614089        -0.153794         0.538892
 O         4.488755         0.186838         1.949354
 C         3.058403        -0.085353         2.388130
 C         2.352768         0.547648         1.169226
 O         2.442702         0.485765        -0.982072
 H        -0.442924         1.119170         0.106581
 H        -0.504895        -0.255857        -0.917011
 H        -0.666349        -0.545322         0.613377
 H         2.024065        -2.010661         0.902892
 H         2.231847        -1.911452        -0.931338
 H         5.261890        -1.101150         0.495959
 H         5.201289         0.725689         0.284738
 H         2.877572        -1.142119         2.753200
 H         3.088652         0.419153         3.421363
 H         2.308100         1.620739         1.184332
