19
Iteration:  2320
 C        -0.043326         0.094404        -0.078383
 C         1.393753        -0.131903         0.241953
 C         2.269945        -1.330346         0.141074
 C         3.191710        -0.069052         0.125279
 C         4.651447         0.034847         0.550440
 O         4.422457        -0.205745         1.972943
 C         3.094425         0.201256         2.417988
 C         2.317956         0.588484         1.148780
 O         2.374510         0.359043        -1.037524
 H        -0.688678        -0.675924         0.271555
 H        -0.604627         0.984348         0.229209
 H        -0.275881         0.015350        -1.176611
 H         2.224968        -1.903366         1.129952
 H         2.257492        -2.023228        -0.746777
 H         5.113541        -0.908450         0.021649
 H         5.018290         0.937665         0.149376
 H         2.704154        -0.620956         3.122052
 H         3.154546         1.172438         3.052161
 H         2.263343         1.744673         0.968389
