19
Iteration:   454charge 0 multiplicity 1
 C        -0.072915         0.044818         0.013508
 C         1.443687        -0.094004         0.055075
 C         2.377271        -1.373368         0.030874
 C         3.269396        -0.094879         0.165624
 C         4.644307         0.153798         0.651703
 O         4.367124        -0.415605         1.940717
 C         3.055264         0.271983         2.479052
 C         2.348659         0.526226         1.138617
 O         2.208705         0.491037        -1.033672
 H        -0.526491        -0.324825         1.019696
 H        -0.500617         1.022924        -0.220953
 H        -0.365913        -0.614913        -0.789595
 H         2.398448        -2.230603         0.764208
 H         2.383361        -1.632040        -1.029925
 H         5.546333        -0.324277         0.166220
 H         5.057616         1.150739         0.631320
 H         2.777624        -0.475792         3.265082
 H         3.273032         1.231931         2.917859
 H         2.372778         1.596734         0.898467
