19
Iteration:  1214
 C        -0.013269         0.080408        -0.000411
 C         1.435229        -0.193207         0.046831
 C         2.353986        -1.367436         0.068921
 C         3.148712        -0.103771         0.114388
 C         4.642666         0.141372         0.564752
 O         4.338568        -0.326303         1.910173
 C         3.128642         0.176042         2.514721
 C         2.237687         0.590433         1.163462
 O         2.356723         0.483846        -0.978001
 H        -0.519357        -0.108583         0.876203
 H        -0.128130         1.171358        -0.184612
 H        -0.593912        -0.464684        -0.747776
 H         2.225196        -1.971277         0.948314
 H         2.516521        -2.011353        -0.798872
 H         5.348979        -0.552673         0.128147
 H         4.930438         1.186188         0.438001
 H         2.760620        -0.515764         3.132318
 H         3.484672         1.016509         3.097481
 H         2.067983         1.666277         1.070637
