19
Iteration:  3106
 C        -0.086803         0.073021        -0.146717
 C         1.406664         0.016627         0.148513
 C         2.226731        -1.342269         0.138296
 C         3.149731        -0.082688         0.100657
 C         4.634079         0.018082         0.453410
 O         4.500467        -0.098353         1.981022
 C         3.096942        -0.042089         2.497193
 C         2.412941         0.596742         1.233493
 O         2.315229         0.420098        -0.978422
 H        -0.708921         0.188347         0.722346
 H        -0.264858         0.866741        -0.928801
 H        -0.526235        -0.779981        -0.602143
 H         2.051453        -1.980265         1.026182
 H         2.102885        -1.966104        -0.747182
 H         5.254260        -0.749424         0.197610
 H         5.004930         0.995273         0.284397
 H         2.643441        -1.026873         2.914926
 H         3.320635         0.571907         3.431514
 H         2.416775         1.719668         1.112883
