19
Iteration:   781
 C        -0.129485         0.146474        -0.027292
 C         1.361468        -0.200939         0.217158
 C         2.278045        -1.412010         0.006271
 C         3.242141        -0.132474         0.010377
 C         4.660983         0.030157         0.611348
 O         4.520596         0.054861         1.982927
 C         2.939297        -0.041799         2.394922
 C         2.379699         0.505434         1.157923
 O         2.342036         0.536702        -0.936192
 H        -0.676670        -0.261753         0.972531
 H        -0.123928         1.164702        -0.094705
 H        -0.564194        -0.302956        -0.900904
 H         2.395843        -2.153354         0.834964
 H         2.314236        -1.938951        -1.004626
 H         5.211330        -0.773306         0.244523
 H         5.251742         0.835408         0.171042
 H         2.553598        -1.086501         2.727875
 H         3.072106         0.595636         3.337319
 H         2.403828         1.559699         1.068241
