19
Iteration:  3547
 C        -0.112144         0.045862        -0.120263
 C         1.331066        -0.067390         0.122306
 C         2.217990        -1.303498         0.246928
 C         3.209656        -0.045973         0.056505
 C         4.660197         0.058077         0.601196
 O         4.432916        -0.249885         1.947549
 C         3.173815         0.082235         2.422444
 C         2.390713         0.634384         1.140723
 O         2.348103         0.415005        -1.030258
 H        -0.407306         0.201162         0.886090
 H        -0.588016         0.824422        -0.745471
 H        -0.462100        -0.852209        -0.502655
 H         2.254532        -1.819565         1.237639
 H         2.090675        -2.139157        -0.476549
 H         5.225231        -0.729120         0.235428
 H         5.069285         0.995849         0.385444
 H         2.735948        -0.773890         3.099101
 H         3.326704         0.907868         3.137191
 H         2.230343         1.728790         0.973509
