19
Iteration:  1919
 C        -0.077875         0.085975        -0.096485
 C         1.395719        -0.122917         0.016271
 C         2.169864        -1.392207         0.045643
 C         3.133203        -0.222639         0.159339
 C         4.556651        -0.136800         0.604766
 O         4.542573         0.201141         1.938726
 C         3.196483         0.003537         2.460558
 C         2.334405         0.493389         1.243818
 O         2.393456         0.546725        -0.935157
 H        -0.657816        -0.722314         0.304143
 H        -0.342240         0.977685         0.578898
 H        -0.370140         0.159022        -1.189596
 H         1.934702        -1.924143         0.979449
 H         2.209608        -2.010742        -0.855239
 H         5.167913        -1.106096         0.259277
 H         5.054270         0.691823         0.080048
 H         2.787610        -0.949911         2.796700
 H         2.835469         0.721513         3.159463
 H         2.335850         1.543140         1.175181
