19
Iteration:  1044charge 0 multiplicity 1
 C        -0.005155         0.169153        -0.108880
 C         1.377405        -0.074829         0.115746
 C         2.268765        -1.470192         0.111503
 C         3.172670        -0.161331         0.181387
 C         4.591390        -0.053916         0.490648
 O         4.449790         0.127851         1.914402
 C         3.051343        -0.086229         2.433825
 C         2.345511         0.511663         1.258625
 O         2.362097         0.527065        -0.935342
 H        -0.671170        -0.557030         0.482523
 H        -0.330187         1.107534         0.106580
 H        -0.214548        -0.039644        -1.195669
 H         2.298506        -2.118619         0.988948
 H         2.231488        -1.843613        -0.885204
 H         5.188267        -0.921392         0.241686
 H         5.025036         0.904586         0.233914
 H         2.738116        -1.061984         2.471312
 H         3.074777         0.314820         3.433020
 H         2.471571         1.569551         1.217032
