19
Iteration:  2561
 C        -0.107080         0.050821         0.065703
 C         1.417958        -0.105858         0.107406
 C         2.325130        -1.297635         0.103927
 C         3.226379        -0.147472         0.052605
 C         4.605648         0.040860         0.595666
 O         4.369161        -0.337019         1.959137
 C         3.002742         0.227950         2.377677
 C         2.397527         0.647489         1.117578
 O         2.405396         0.432577        -0.982798
 H        -0.347254        -0.590353         0.868394
 H        -0.237981         1.164624         0.188202
 H        -0.628613        -0.214847        -0.849271
 H         2.276126        -1.903842         1.054505
 H         2.273855        -1.815443        -0.872897
 H         5.440839        -0.666517         0.163688
 H         4.827960         1.122999         0.408627
 H         2.581456        -0.642898         2.837348
 H         3.175986         1.088580         3.118752
 H         2.251105         1.757588         0.962267
