19
Iteration:  1253charge 0 multiplicity 1
 C        -0.050672        -0.053387         0.031328
 C         1.463611        -0.064314         0.205599
 C         2.315958        -1.316758         0.120900
 C         3.275372        -0.056774        -0.001243
 C         4.628365        -0.005530         0.580446
 O         4.383030        -0.249215         2.015713
 C         3.035457         0.099156         2.372774
 C         2.388747         0.741335         1.147024
 O         2.245908         0.479961        -1.058215
 H        -0.719947        -0.760382         0.631362
 H        -0.296190         1.015314         0.265553
 H        -0.118523        -0.134161        -1.054033
 H         2.286772        -1.936550         1.059064
 H         2.158452        -1.865347        -0.817144
 H         5.313345        -0.822227         0.324920
 H         5.168935         0.972722         0.492747
 H         2.540719        -0.973054         2.611573
 H         2.896782         0.688020         3.320276
 H         2.448037         1.832732         0.912195
