19
Iteration:  4818charge 0 multiplicity 1
 C        -0.015761         0.028185        -0.046984
 C         1.426768        -0.005200         0.056361
 C         2.320549        -1.309107        -0.092108
 C         3.209709        -0.102528         0.095860
 C         4.620746         0.031166         0.511817
 O         4.489412        -0.056507         1.995820
 C         3.069104        -0.208989         2.441431
 C         2.255183         0.466304         1.338090
 O         2.295598         0.641700        -0.882457
 H        -0.437873         0.626564         0.851110
 H        -0.337179         0.593475        -0.946809
 H        -0.681156        -0.800879         0.087656
 H         2.206673        -2.144218         0.589099
 H         2.235341        -1.710972        -1.129543
 H         5.360092        -0.748254         0.071191
 H         4.950015         1.038954         0.265894
 H         2.663573        -1.201732         2.660253
 H         3.101159         0.410542         3.416661
 H         2.172493         1.616812         1.222467
