19
Iteration:  4670charge 0 multiplicity 1
 C        -0.053439         0.011523        -0.010832
 C         1.327959        -0.075082         0.179298
 C         2.277609        -1.249474        -0.097626
 C         3.235379         0.041955         0.050296
 C         4.578748         0.104171         0.521089
 O         4.439472        -0.208609         2.048984
 C         3.064252        -0.207602         2.406233
 C         2.390519         0.423537         1.240113
 O         2.389894         0.722314        -0.927798
 H        -0.286578         0.698137        -0.858488
 H        -0.457249        -0.902955        -0.460290
 H        -0.639719         0.107701         0.916716
 H         2.335752        -2.107459         0.677645
 H         2.172963        -1.909194        -1.119298
 H         5.281259        -0.554936         0.104919
 H         4.946076         1.094056         0.476272
 H         2.649858        -1.315943         2.693276
 H         3.146852         0.486292         3.201248
 H         2.157620         1.441507         1.521220
