19
Iteration:  1481
 C        -0.056063        -0.009849        -0.144932
 C         1.419860        -0.059736         0.217400
 C         2.325734        -1.358066         0.261310
 C         3.196416        -0.084911         0.016532
 C         4.535204         0.091131         0.592551
 O         4.431918        -0.384267         1.900546
 C         3.085264         0.153101         2.472078
 C         2.391214         0.682004         1.184371
 O         2.296018         0.510438        -1.055008
 H        -0.656873        -0.689992         0.614756
 H        -0.295505         1.035880        -0.187291
 H        -0.167906        -0.318886        -1.169106
 H         2.510991        -1.883997         1.249626
 H         2.207042        -2.075523        -0.580940
 H         5.434625        -0.479274         0.212707
 H         4.755107         1.164169         0.454500
 H         2.626874        -0.749822         2.950205
 H         3.186027         1.046889         3.165819
 H         2.403693         1.794090         1.115632
