19
Iteration:  2388charge 0 multiplicity 1
 C        -0.066365         0.068511         0.013884
 C         1.383657        -0.027212         0.117047
 C         2.205974        -1.359839         0.007496
 C         3.193368        -0.160351         0.098293
 C         4.626359        -0.143956         0.606368
 O         4.520067         0.079326         2.039870
 C         3.020595         0.078227         2.381101
 C         2.413989         0.606793         1.119789
 O         2.327498         0.426492        -1.009622
 H        -0.455765        -0.276933         1.005916
 H        -0.624295         1.157102        -0.063041
 H        -0.384203        -0.622310        -0.822698
 H         2.214963        -2.101440         0.894455
 H         2.020382        -1.917140        -0.928154
 H         5.231296        -1.136376         0.603212
 H         5.350345         0.679943         0.366230
 H         2.639856        -1.016610         2.518829
 H         3.054304         0.528767         3.365119
 H         2.488828         1.710772         0.996597
