19
Iteration:  4909
 C        -0.271374         0.054512        -0.104509
 C         1.408154        -0.058819         0.130690
 C         2.337052        -1.292065        -0.139638
 C         3.229213        -0.053694         0.094545
 C         4.657508         0.025598         0.547295
 O         4.572019        -0.029196         2.002557
 C         3.015516        -0.265520         2.433840
 C         2.316093         0.383342         1.289686
 O         2.315843         0.721637        -0.824424
 H        -0.548405         1.129543        -0.588385
 H        -0.359495        -0.713334        -0.937410
 H        -0.857007        -0.110331         0.894596
 H         2.346995        -2.003330         0.657483
 H         2.534484        -1.709126        -1.113290
 H         5.228767        -0.844242         0.026251
 H         5.140630         1.060430         0.224207
 H         2.944219        -1.318974         2.656477
 H         3.069805         0.332615         3.326242
 H         2.413876         1.423438         1.539982
