19
Iteration:   567charge 0 multiplicity 1
 C        -0.009056         0.109414        -0.104019
 C         1.381012        -0.179880         0.053515
 C         2.241661        -1.423794        -0.143658
 C         3.116523        -0.254378         0.105371
 C         4.547959        -0.158894         0.575414
 O         4.538217         0.290691         1.939747
 C         3.124905         0.023928         2.500319
 C         2.292978         0.431301         1.295512
 O         2.325386         0.600504        -0.792617
 H        -0.584799        -0.402355         0.670440
 H        -0.084270         1.220685        -0.102902
 H        -0.471583        -0.214314        -1.072623
 H         2.168992        -2.200117         0.630314
 H         2.389441        -1.892753        -1.145399
 H         5.055740        -1.195740         0.498836
 H         5.081690         0.424819        -0.062834
 H         3.041888        -0.983881         2.952329
 H         3.046119         0.773447         3.288185
 H         2.610202         1.489279         1.157929
