19
Iteration:  1130
 C        -0.097836         0.020313        -0.085752
 C         1.342595        -0.109634         0.232284
 C         2.265390        -1.312369         0.076990
 C         3.191744        -0.117329         0.055647
 C         4.615766        -0.186920         0.537851
 O         4.429793         0.097686         1.957627
 C         3.058008         0.005682         2.359755
 C         2.322115         0.552372         1.282187
 O         2.493322         0.572471        -0.973235
 H        -0.631428        -0.529800         0.884676
 H        -0.309756         1.038835        -0.099977
 H        -0.380679        -0.485970        -1.079054
 H         2.192221        -2.063975         0.850908
 H         2.075931        -1.653868        -0.965430
 H         5.028455        -1.175121         0.174930
 H         5.267436         0.633488         0.164017
 H         2.717319        -1.107968         2.751047
 H         3.161238         0.645053         3.286104
 H         2.166573         1.599534         1.326984
