19
Iteration:   271charge 0 multiplicity 1
 C        -0.098289        -0.018939        -0.064184
 C         1.349447        -0.085878         0.091395
 C         2.209537        -1.391559        -0.004213
 C         3.152527        -0.100053         0.150929
 C         4.607831        -0.198275         0.626466
 O         4.569579         0.195007         2.022039
 C         3.105406        -0.026108         2.411859
 C         2.351417         0.566242         1.206380
 O         2.346632         0.584583        -0.993398
 H        -0.724801        -0.446878         0.846584
 H        -0.372545         0.947214        -0.195835
 H        -0.244335        -0.488487        -0.976161
 H         2.194458        -2.058341         0.884139
 H         2.127450        -1.816733        -1.038850
 H         5.117221        -1.155122         0.443987
 H         5.254824         0.422746        -0.005794
 H         2.917419        -1.146708         2.631401
 H         3.007455         0.552141         3.305617
 H         2.356975         1.624578         1.177320
