19
Iteration:  3137charge 0 multiplicity 1
 C        -0.144506         0.110317         0.005436
 C         1.428593        -0.113158         0.121066
 C         2.341945        -1.408455         0.121320
 C         3.177339        -0.107083         0.066298
 C         4.598809        -0.001309         0.524350
 O         4.527789        -0.190282         1.981900
 C         3.002735         0.080950         2.428034
 C         2.299524         0.584955         1.115073
 O         2.386245         0.506234        -0.968796
 H        -0.597471         0.112702         0.958993
 H        -0.170069         1.207192        -0.322740
 H        -0.640908        -0.546156        -0.612191
 H         2.271286        -1.763587         1.187490
 H         2.298130        -2.026890        -0.822094
 H         5.396065        -0.729086         0.059892
 H         4.937795         1.036960         0.328377
 H         2.442838        -0.805453         2.809653
 H         3.122778         0.867976         3.242044
 H         2.291688         1.664425         0.931167
