19
Iteration:   660charge 0 multiplicity 1
 C        -0.212608         0.048377        -0.112512
 C         1.385128        -0.138357         0.198871
 C         2.329607        -1.376259         0.098300
 C         3.175726        -0.114454         0.082327
 C         4.626617         0.037653         0.491907
 O         4.490784        -0.210773         2.020528
 C         3.108647         0.128138         2.427549
 C         2.321972         0.592916         1.179859
 O         2.365715         0.543928        -0.966997
 H        -0.757122        -0.569038         0.720071
 H        -0.533896         1.067898        -0.175353
 H        -0.486487        -0.439105        -1.032951
 H         2.512523        -2.052541         0.937886
 H         2.471313        -1.920376        -0.838866
 H         5.432101        -0.568016         0.167758
 H         5.048416         1.086181         0.471576
 H         2.664512        -0.786945         2.883541
 H         3.213478         0.895359         3.186312
 H         2.335331         1.652695         0.980956
