19
Iteration:  2756charge 0 multiplicity 1
 C        -0.100363         0.101588        -0.155989
 C         1.305425        -0.092916         0.141583
 C         2.168552        -1.410327         0.112649
 C         3.131712        -0.183949         0.139845
 C         4.604471        -0.051270         0.490273
 O         4.553860        -0.007997         1.955176
 C         3.174740         0.108292         2.476838
 C         2.345434         0.582755         1.243561
 O         2.398933         0.466154        -0.912402
 H        -0.677154        -0.807371        -0.092645
 H        -0.611989         0.964820         0.390742
 H        -0.128417         0.380187        -1.214084
 H         2.139157        -2.200033         0.800766
 H         2.195290        -1.848569        -0.881602
 H         5.182998        -0.862377         0.144645
 H         5.069741         0.865905         0.031186
 H         2.732157        -0.990778         2.727974
 H         3.158520         0.682239         3.431868
 H         2.563978         1.673612         1.150197
