19
Iteration:  1657
 C        -0.137025         0.091732        -0.218106
 C         1.319992        -0.024828         0.091532
 C         2.194769        -1.379159         0.095093
 C         3.195186        -0.227367         0.127441
 C         4.703074         0.052624         0.570405
 O         4.568241         0.040394         2.009898
 C         3.104406         0.004530         2.452193
 C         2.391549         0.479263         1.248194
 O         2.264078         0.464373        -0.957044
 H        -0.612858        -0.799185         0.254720
 H        -0.324294         0.925342         0.388609
 H        -0.168619         0.158895        -1.295301
 H         2.009404        -1.907582         1.064479
 H         1.944023        -2.025571        -0.788202
 H         5.349793        -0.842596         0.372361
 H         5.023212         0.982386         0.033692
 H         2.981984        -1.104331         2.864791
 H         3.122111         0.814402         3.242002
 H         2.519997         1.599724         1.169122
