19
Iteration:  3073charge 0 multiplicity 1
 C        -0.064205         0.084980        -0.173353
 C         1.331423        -0.113517         0.144875
 C         2.221554        -1.429122         0.119198
 C         3.191815        -0.117664         0.103211
 C         4.661829        -0.079555         0.495002
 O         4.506363        -0.030216         1.973773
 C         3.138511         0.034575         2.429991
 C         2.351171         0.581985         1.206919
 O         2.288903         0.552150        -0.854612
 H        -0.679577         0.315165         0.671811
 H        -0.193995         1.080588        -0.744405
 H        -0.378206        -0.694294        -0.838358
 H         2.056634        -2.036661         1.028273
 H         2.168755        -2.020360        -0.814580
 H         5.162912        -0.939722         0.281061
 H         5.270611         0.729219         0.123011
 H         2.749988        -1.005284         2.766903
 H         3.341363         0.825680         3.201351
 H         2.217707         1.693081         1.066162
