19
Iteration:   266
 C        -0.108263        -0.027639        -0.040279
 C         1.385798        -0.097389         0.078411
 C         2.209907        -1.341842        -0.033662
 C         3.175594        -0.063615         0.146684
 C         4.606265        -0.211706         0.619020
 O         4.546510         0.157779         1.991449
 C         3.125356         0.016559         2.467043
 C         2.307186         0.511411         1.202620
 O         2.344843         0.574109        -0.983893
 H        -0.557502        -0.424249         0.793966
 H        -0.469807         1.079974        -0.315578
 H        -0.268360        -0.639971        -1.021117
 H         2.193690        -2.000708         0.896150
 H         2.224560        -1.878414        -0.983686
 H         5.026862        -1.241509         0.318570
 H         5.321619         0.474999         0.120455
 H         2.869653        -0.998204         2.752035
 H         3.069274         0.673942         3.373779
 H         2.333112         1.664933         1.219822
