19
Iteration:  2792
 C        -0.120349         0.073381        -0.199640
 C         1.368133        -0.106067         0.138261
 C         2.269298        -1.380699         0.211826
 C         3.133355        -0.109202         0.148256
 C         4.635391        -0.077495         0.519299
 O         4.557569        -0.117463         1.987225
 C         3.130892         0.054240         2.413155
 C         2.387129         0.657249         1.168085
 O         2.238783         0.542896        -0.932858
 H        -0.634056        -0.773234         0.253912
 H        -0.500441         1.068291         0.208947
 H        -0.084231         0.073362        -1.280858
 H         2.361001        -1.897523         1.186953
 H         2.363817        -2.037730        -0.675646
 H         5.296058        -0.931687         0.228080
 H         5.104165         0.811796         0.241913
 H         2.745256        -1.041126         2.601441
 H         3.078362         0.721603         3.301413
 H         2.305659         1.701303         0.828935
