19
Iteration:    50charge 0 multiplicity 1
 C        -0.074381         0.257467        -0.114280
 C         1.387065        -0.129330         0.046549
 C         2.271249        -1.470747        -0.033535
 C         3.174201        -0.231006         0.145724
 C         4.577970         0.080082         0.550265
 O         4.499933         0.202987         2.026891
 C         3.141288        -0.038280         2.501989
 C         2.375396         0.362043         1.208055
 O         2.285298         0.405490        -0.923112
 H        -0.797682        -0.134933         0.735117
 H        -0.145507         1.420401        -0.150157
 H        -0.469103        -0.093557        -1.148075
 H         2.270240        -1.972590         0.977733
 H         2.201074        -2.236837        -0.831627
 H         5.145708        -0.881322         0.348544
 H         4.838502         1.084323         0.230094
 H         3.089396        -1.140687         2.665101
 H         2.925753         0.614722         3.362834
 H         2.570579         1.480572         1.046979
