19
Iteration:   495
 C        -0.077620         0.082391        -0.105713
 C         1.355198        -0.095018         0.202067
 C         2.324598        -1.361556         0.116474
 C         3.216323        -0.162632         0.142319
 C         4.668102         0.050916         0.521200
 O         4.469036        -0.064767         1.929051
 C         2.998176        -0.020679         2.429428
 C         2.299895         0.524375         1.175166
 O         2.354455         0.529626        -0.949546
 H        -0.559277        -0.578793         0.549984
 H        -0.340414         1.214528         0.063171
 H        -0.383226        -0.202127        -1.151008
 H         2.494546        -2.007252         0.986245
 H         2.293720        -2.064277        -0.690942
 H         5.280840        -0.811839         0.100174
 H         5.140268         1.084342         0.074119
 H         2.640132        -0.969147         2.825699
 H         2.999160         0.861114         3.246169
 H         2.267555         1.658183         1.106270
