19
Iteration:  3117charge 0 multiplicity 1
 C        -0.054031         0.090173        -0.101191
 C         1.433765        -0.081468         0.049464
 C         2.169539        -1.366666         0.168949
 C         3.209587        -0.070819         0.190822
 C         4.640117         0.024512         0.491612
 O         4.437596        -0.135629         1.940394
 C         3.141289         0.016954         2.415452
 C         2.316031         0.584573         1.252734
 O         2.335554         0.445074        -0.981882
 H        -0.392343         0.272657         0.903652
 H        -0.349508         1.031512        -0.628278
 H        -0.365551        -0.820261        -0.523623
 H         2.137793        -1.963475         1.099855
 H         2.196525        -1.800257        -0.823035
 H         5.216554        -0.658101        -0.000043
 H         5.095753         0.968965         0.318853
 H         2.756621        -1.030376         2.734530
 H         2.976368         0.813775         3.213090
 H         2.506696         1.698735         1.304208
