19
Iteration:  4836charge 0 multiplicity 1
 C        -0.128883         0.117788        -0.027032
 C         1.414456        -0.116029         0.028552
 C         2.249808        -1.359262        -0.085524
 C         3.124852        -0.085811         0.092478
 C         4.614253         0.080672         0.612398
 O         4.544986        -0.018417         2.029858
 C         3.117664        -0.209491         2.419572
 C         2.379371         0.365088         1.201129
 O         2.315269         0.711099        -0.894706
 H        -0.525155         0.773358         0.651365
 H        -0.448002         0.529692        -0.977678
 H        -0.577197        -0.921231         0.064998
 H         2.100345        -2.003069         0.917039
 H         2.288473        -1.907426        -0.988692
 H         5.251380        -0.674920         0.348882
 H         5.033597         1.055304         0.361524
 H         2.965964        -1.364724         2.416238
 H         2.862612         0.331044         3.295681
 H         2.454416         1.429575         1.402207
