19
Iteration:  1527
 C        -0.044853         0.114651        -0.011929
 C         1.377667        -0.137860         0.156002
 C         2.372193        -1.383568         0.066843
 C         3.168750        -0.119735         0.023810
 C         4.591541         0.021308         0.526872
 O         4.423166        -0.158035         2.033102
 C         3.040483         0.091668         2.416034
 C         2.284572         0.528184         1.210115
 O         2.376047         0.538262        -1.006406
 H        -0.563250         0.015757         1.000169
 H        -0.211281         1.056684        -0.661807
 H        -0.447769        -0.694559        -0.698346
 H         2.513727        -1.822874         1.089084
 H         2.324540        -2.209533        -0.677271
 H         5.208077        -0.738873         0.073223
 H         5.124800         1.006641         0.368552
 H         2.608159        -0.776704         2.840346
 H         3.190747         0.920564         3.153253
 H         2.403234         1.616927         0.984130
