19
Iteration:  2725charge 0 multiplicity 1
 C        -0.048508         0.185719        -0.003409
 C         1.381609        -0.098698         0.061916
 C         2.199660        -1.432745         0.099716
 C         3.196669        -0.201356         0.057512
 C         4.666608        -0.090753         0.496518
 O         4.455568         0.095846         1.991734
 C         3.038556         0.041476         2.477493
 C         2.348953         0.473927         1.200518
 O         2.359845         0.490803        -0.987416
 H        -0.608392        -0.669878         0.261253
 H        -0.448284         1.102341         0.588522
 H        -0.384920         0.459934        -0.955195
 H         2.208205        -2.081781         0.952455
 H         2.190322        -2.003681        -0.856106
 H         5.325389        -0.950961         0.392302
 H         5.215566         0.761723         0.170215
 H         2.876723        -1.008390         2.764952
 H         3.146823         0.733231         3.317704
 H         2.453512         1.579912         1.160421
