19
Iteration:  3715
 C        -0.052424         0.140472        -0.104787
 C         1.317838        -0.147931         0.152981
 C         2.295344        -1.335159         0.100940
 C         3.137021        -0.104916         0.061390
 C         4.544037         0.005339         0.541509
 O         4.500935        -0.086443         1.994169
 C         3.113507         0.007141         2.461469
 C         2.410358         0.517949         1.178140
 O         2.353061         0.505764        -0.954359
 H        -0.228061         0.710773        -1.042059
 H        -0.603314        -0.780386        -0.221517
 H        -0.657505         0.564524         0.601324
 H         2.349127        -2.044940         0.976025
 H         2.066344        -1.828244        -0.909536
 H         5.306603        -0.704861         0.345797
 H         4.841411         0.948561         0.263453
 H         2.804005        -1.102342         2.678266
 H         3.187202         0.769304         3.318814
 H         2.509594         1.599451         1.206157
