19
Iteration:  4618
 C        -0.095938         0.093977        -0.094368
 C         1.334130        -0.147270         0.201989
 C         2.361846        -1.277208        -0.171113
 C         3.205493        -0.000227         0.030041
 C         4.582972         0.050905         0.590788
 O         4.500296        -0.035406         2.031234
 C         3.094062        -0.268674         2.436665
 C         2.317578         0.382560         1.291546
 O         2.307683         0.693619        -0.904519
 H         0.025598         0.979375        -0.706618
 H        -0.814807        -0.610120        -0.490545
 H        -0.612278         0.367029         0.872595
 H         2.549139        -2.109494         0.554492
 H         2.192375        -1.643593        -1.179135
 H         5.083907        -0.928274         0.368087
 H         5.293438         0.863072         0.222894
 H         2.859137        -1.302301         2.599291
 H         3.064639         0.200087         3.393001
 H         2.254047         1.489133         1.467438
