19
Iteration:  1701
 C        -0.038960         0.062880         0.011964
 C         1.442439        -0.102954         0.135560
 C         2.352723        -1.283907         0.115882
 C         3.226228        -0.026694         0.071222
 C         4.629152        -0.044628         0.569228
 O         4.424835        -0.156963         1.930185
 C         2.952971         0.073781         2.471770
 C         2.310292         0.609554         1.197667
 O         2.311045         0.440900        -1.059916
 H        -0.520983        -0.551842         0.827184
 H        -0.409599         1.082520         0.004760
 H        -0.320598        -0.420887        -0.964732
 H         2.550814        -1.847869         1.054240
 H         2.521229        -1.830209        -0.843648
 H         5.126621        -0.977484         0.178669
 H         5.192320         0.909018         0.402342
 H         2.636566        -0.999887         2.855627
 H         3.119553         0.778692         3.314189
 H         2.253569         1.694357         0.914714
