19
Iteration:  1602charge 0 multiplicity 1
 C         0.003603         0.166198        -0.116375
 C         1.380353        -0.115822         0.133927
 C         2.275573        -1.404746         0.072072
 C         3.166258        -0.143763         0.117342
 C         4.656511        -0.163411         0.477026
 O         4.434014         0.211381         1.930344
 C         3.064576        -0.039996         2.451872
 C         2.309286         0.473288         1.215131
 O         2.329481         0.523278        -0.860712
 H        -0.470827        -0.575310         0.591966
 H        -0.264298         1.163361        -0.076418
 H        -0.192264        -0.017322        -1.152342
 H         2.122714        -2.106826         0.940477
 H         2.318147        -1.977656        -0.896692
 H         5.095400        -1.201011         0.413035
 H         5.250481         0.615700        -0.013776
 H         2.974660        -1.159531         2.837044
 H         3.038016         0.512803         3.456166
 H         2.061750         1.579808         1.128248
