19
Iteration:  1742charge 0 multiplicity 1
 C        -0.066446        -0.026671         0.036637
 C         1.427952        -0.039165         0.122438
 C         2.365293        -1.367715         0.015129
 C         3.229328        -0.098165         0.022163
 C         4.624870         0.049782         0.634116
 O         4.356105        -0.351894         1.964876
 C         3.048923         0.240951         2.464244
 C         2.415764         0.629037         1.120822
 O         2.295322         0.509805        -0.994968
 H        -0.629682         0.028820         1.076558
 H        -0.453537         0.707524        -0.637580
 H        -0.411935        -0.935915        -0.471358
 H         2.274489        -2.074192         0.845682
 H         2.148140        -1.858820        -0.950606
 H         5.585438        -0.530560         0.330346
 H         4.743776         1.089422         0.459191
 H         2.626514        -0.563774         2.966007
 H         3.143603         1.088314         3.196266
 H         2.427519         1.694169         1.226915
