19
Iteration:  1519charge 0 multiplicity 1
 C        -0.099793         0.077510        -0.045416
 C         1.415966        -0.165792         0.139017
 C         2.363205        -1.395645         0.130640
 C         3.154710        -0.058899         0.037140
 C         4.670490         0.050461         0.562449
 O         4.438577        -0.217262         1.973039
 C         3.010163         0.116160         2.451841
 C         2.337659         0.561530         1.193103
 O         2.343309         0.512852        -1.019716
 H        -0.739348         0.176268         0.777557
 H        -0.138560         1.197325        -0.415765
 H        -0.669377        -0.595756        -0.762586
 H         2.406106        -1.935036         1.051143
 H         2.316042        -2.021105        -0.761469
 H         5.325337        -0.740357         0.200964
 H         5.179612         1.064038         0.365299
 H         2.687560        -0.786989         2.926818
 H         3.153058         0.881993         3.173384
 H         2.166238         1.634915         1.115107
