19
Iteration:  2835charge 0 multiplicity 1
 C        -0.074354         0.057982         0.055722
 C         1.406961        -0.098241         0.053159
 C         2.259960        -1.374459         0.078850
 C         3.238289        -0.122125         0.013995
 C         4.605834        -0.004739         0.624324
 O         4.445840        -0.195765         2.050453
 C         3.074851         0.111143         2.434032
 C         2.377145         0.574895         1.130650
 O         2.335901         0.543265        -1.088154
 H        -0.369797        -0.102617         1.100973
 H        -0.399181         1.130765        -0.153705
 H        -0.506815        -0.692749        -0.579701
 H         2.156622        -1.901738         1.011078
 H         2.203169        -2.018775        -0.792547
 H         5.311311        -0.707156         0.177896
 H         4.843467         1.015089         0.352373
 H         2.509791        -0.819155         2.964843
 H         3.134923         0.962963         3.155259
 H         2.373096         1.671705         1.221461
