19
Iteration:   563charge 0 multiplicity 1
 C        -0.050125         0.118050        -0.139384
 C         1.385753        -0.167107         0.051465
 C         2.246071        -1.435662        -0.120463
 C         3.092228        -0.248623         0.152610
 C         4.585023        -0.170146         0.548295
 O         4.508287         0.286332         1.921078
 C         3.134201         0.009079         2.510046
 C         2.339487         0.433289         1.257157
 O         2.330408         0.619244        -0.776271
 H        -0.635354        -0.495653         0.671137
 H        -0.184545         1.154811        -0.052251
 H        -0.501192        -0.236185        -1.032648
 H         2.126764        -2.199236         0.653092
 H         2.412153        -1.916939        -1.086542
 H         5.061880        -1.220108         0.666650
 H         5.229694         0.618112        -0.077216
 H         3.049908        -1.044570         2.991651
 H         3.090123         0.770999         3.252120
 H         2.562576         1.464630         1.136007
