19
Iteration:  3971
 C        -0.116571         0.097988        -0.100520
 C         1.403449        -0.009049        -0.011373
 C         2.350951        -1.350882         0.090610
 C         3.152657        -0.052992         0.131174
 C         4.610486        -0.098395         0.560971
 O         4.468086        -0.023065         1.919574
 C         3.109411        -0.025018         2.527442
 C         2.312125         0.520128         1.227131
 O         2.301971         0.497926        -0.949284
 H        -0.289917         0.558627        -1.011862
 H        -0.430787        -0.943292         0.117085
 H        -0.535734         0.802800         0.688030
 H         2.401308        -1.954153         1.078655
 H         2.470027        -1.840249        -0.859994
 H         4.904764        -1.196162         0.260042
 H         5.266880         0.760249         0.317130
 H         2.829911        -1.015059         2.635282
 H         3.354597         0.454031         3.532410
 H         2.259579         1.636725         1.160790
