19
Iteration:  3223
 C        -0.023235        -0.019133        -0.113593
 C         1.361211        -0.068921         0.264056
 C         2.218278        -1.331215         0.206432
 C         3.201612        -0.039666         0.092043
 C         4.628554        -0.051481         0.497333
 O         4.514332        -0.223012         1.966482
 C         3.080154         0.138931         2.438879
 C         2.321220         0.690758         1.182597
 O         2.333996         0.481616        -1.035433
 H        -0.545942        -0.914735         0.231458
 H        -0.525293         0.987734         0.220120
 H        -0.164017         0.026806        -1.178568
 H         2.172113        -2.159399         0.961831
 H         2.215338        -1.918182        -0.745093
 H         5.204911        -1.038313         0.131829
 H         5.083959         0.914034         0.212584
 H         2.563553        -0.657963         2.794525
 H         3.172414         0.894605         3.200827
 H         2.224824         1.731662         1.015149
