19
Iteration:   113charge 0 multiplicity 1
 C        -0.144469        -0.085776        -0.096622
 C         1.364134        -0.042485         0.020412
 C         2.193554        -1.287931        -0.033447
 C         3.227980        -0.163975         0.135848
 C         4.718401        -0.175204         0.607073
 O         4.517639         0.064040         2.009685
 C         3.118622         0.085231         2.479606
 C         2.328521         0.499951         1.198389
 O         2.295696         0.605506        -0.920131
 H        -0.487119        -0.611653         0.718914
 H        -0.452885         1.031383        -0.057197
 H        -0.414442        -0.700739        -1.043740
 H         2.111705        -1.863042         0.917685
 H         2.109616        -1.833931        -1.033824
 H         5.292150        -1.142392         0.396846
 H         5.273531         0.659278         0.199153
 H         2.890434        -0.908307         2.877935
 H         3.065089         0.890476         3.266225
 H         2.343432         1.654621         1.142999
