19
Iteration:   916
 C         0.040405        -0.032998         0.038113
 C         1.454415        -0.092205         0.133727
 C         2.272346        -1.279674         0.100645
 C         3.225677        -0.077759         0.018848
 C         4.605992         0.067817         0.562677
 O         4.374123        -0.294968         2.016288
 C         3.011930         0.118571         2.387687
 C         2.335368         0.609799         1.112296
 O         2.299975         0.547259        -0.989242
 H        -0.255898        -0.649708         0.888552
 H        -0.372720         1.037176         0.244247
 H        -0.496977        -0.472985        -0.871790
 H         2.429313        -2.086323         0.860728
 H         2.218662        -1.846815        -0.825546
 H         5.447171        -0.532353         0.203359
 H         5.006403         1.104647         0.447967
 H         2.615370        -0.965039         2.650606
 H         3.070799         0.764597         3.272530
 H         2.618570         1.681444         0.997305
