19
Iteration:  4921charge 0 multiplicity 1
 C        -0.132426         0.008560        -0.114997
 C         1.341801        -0.031971         0.111283
 C         2.315928        -1.269380        -0.163731
 C         3.181879        -0.059608         0.154157
 C         4.619526         0.082211         0.578545
 O         4.540772        -0.097989         1.999489
 C         3.109632        -0.261045         2.429700
 C         2.367751         0.489447         1.271646
 O         2.304836         0.679210        -0.816208
 H        -0.510786         0.983885        -0.671038
 H        -0.634302        -0.880528        -0.634679
 H        -0.740927        -0.052612         0.880849
 H         2.405771        -2.176876         0.442435
 H         2.173209        -1.504776        -1.171703
 H         5.275541        -0.813379         0.278902
 H         5.186356         1.084365         0.255109
 H         2.829529        -1.314669         2.493969
 H         2.931487         0.188204         3.355774
 H         2.334931         1.534031         1.199731
