19
Iteration:  4955charge 0 multiplicity 1
 C        -0.102084         0.043907        -0.039499
 C         1.382461        -0.061958         0.125796
 C         2.418916        -1.275192        -0.039456
 C         3.184058        -0.003645         0.063157
 C         4.638992         0.155798         0.551818
 O         4.460861        -0.241284         1.943203
 C         2.991349        -0.224739         2.427321
 C         2.320801         0.401573         1.220069
 O         2.304569         0.731482        -0.852458
 H        -0.258484         0.925909        -0.739157
 H        -0.328678        -0.960003        -0.522239
 H        -0.402587         0.235603         1.055313
 H         2.592723        -2.057848         0.714702
 H         2.158013        -1.743475        -0.937790
 H         5.280744        -0.651758         0.097150
 H         5.095696         1.248166         0.362820
 H         2.737680        -1.240108         2.676968
 H         2.950959         0.365173         3.310838
 H         2.335178         1.446965         1.371944
