19
Iteration:   278charge 0 multiplicity 1
 C        -0.103595         0.001770        -0.091465
 C         1.357026        -0.082614         0.143851
 C         2.207407        -1.389418         0.043851
 C         3.145384        -0.194335         0.107895
 C         4.629849        -0.152991         0.601125
 O         4.563541         0.237240         2.049666
 C         3.089342        -0.075371         2.342409
 C         2.401213         0.595083         1.211650
 O         2.339594         0.573737        -0.967336
 H        -0.688103        -0.475557         0.637317
 H        -0.414797         1.153976        -0.039855
 H        -0.471416        -0.472723        -1.075893
 H         2.156586        -2.265651         0.827618
 H         2.107992        -1.783121        -0.977562
 H         5.064900        -1.216405         0.742992
 H         5.169529         0.580047        -0.002737
 H         3.017961        -1.186490         2.371690
 H         2.884917         0.370192         3.335403
 H         2.433199         1.747961         1.108005
