19
Iteration:  4603
 C        -0.012850         0.153097        -0.050300
 C         1.453062        -0.151198         0.127896
 C         2.316834        -1.365952        -0.109453
 C         3.106430        -0.009093         0.070269
 C         4.572716        -0.018848         0.522207
 O         4.432437         0.027745         2.000157
 C         3.116571        -0.295845         2.480877
 C         2.303025         0.341289         1.329562
 O         2.326889         0.790398        -0.925472
 H        -0.347499         1.011122        -0.704300
 H        -0.270837        -0.733069        -0.646234
 H        -0.495338         0.240262         0.902900
 H         2.392348        -2.124681         0.722433
 H         2.369673        -1.883887        -1.221595
 H         5.167818        -0.844731         0.139313
 H         5.011207         0.927921         0.367699
 H         3.076057        -1.456943         2.643069
 H         2.902799         0.352822         3.325219
 H         2.198181         1.429659         1.379933
