19
Iteration:  4105charge 0 multiplicity 1
 C        -0.125186        -0.021450        -0.112822
 C         1.329012        -0.038562         0.044628
 C         2.261352        -1.239409         0.037362
 C         3.210672        -0.087090         0.073115
 C         4.677952         0.044199         0.601613
 O         4.459212        -0.256047         1.996020
 C         3.114105         0.023302         2.414343
 C         2.377556         0.470484         1.188265
 O         2.337050         0.649098        -0.899329
 H        -0.576124        -1.091936        -0.116083
 H        -0.536702         0.347819         0.880668
 H        -0.572682         0.560511        -0.898757
 H         2.253939        -1.873637         0.941615
 H         2.231738        -2.027058        -0.805323
 H         5.398702        -0.820187         0.417165
 H         4.996867         1.100410         0.474483
 H         2.859591        -0.908532         2.828836
 H         3.195412         0.859683         3.152207
 H         2.290396         1.584564         1.168490
