19
Iteration:    29charge 0 multiplicity 1
 C        -0.033107         0.183758        -0.109941
 C         1.370713        -0.185219         0.111537
 C         2.120170        -1.526112        -0.010421
 C         3.194321        -0.251123         0.084659
 C         4.615507         0.101144         0.545678
 O         4.538430         0.105772         2.014980
 C         3.121532         0.077795         2.505175
 C         2.317131         0.414416         1.221079
 O         2.398055         0.475746        -0.935900
 H        -0.685580        -0.187254         0.806677
 H        -0.168341         1.292917        -0.130384
 H        -0.563435        -0.124290        -1.044207
 H         2.027735        -2.472692         0.586600
 H         2.225713        -1.881789        -1.042691
 H         5.506020        -0.542138         0.332952
 H         4.484157         1.185983         0.277395
 H         2.901521        -0.960393         2.884704
 H         2.968731         0.914163         3.197653
 H         2.277468         1.529055         1.247510
