19
Iteration:  4714
 C        -0.039111         0.031323        -0.046788
 C         1.467173        -0.082966         0.106929
 C         2.394505        -1.296463         0.002326
 C         3.183659         0.057442         0.065497
 C         4.646990         0.196632         0.542847
 O         4.391719        -0.403060         1.987964
 C         3.107928        -0.135086         2.444866
 C         2.328977         0.481808         1.245775
 O         2.202561         0.701283        -0.934257
 H        -0.268003         1.015926        -0.450182
 H        -0.559481        -0.601069        -0.772669
 H        -0.543444        -0.365981         0.822297
 H         2.472635        -2.012129         0.909205
 H         2.471896        -1.804003        -1.058912
 H         5.219986        -0.507868         0.051050
 H         5.082774         1.160003         0.466543
 H         2.697852        -1.135720         3.003866
 H         2.937180         0.716734         3.073647
 H         2.320506         1.564891         1.311044
