19
Iteration:  2465charge 0 multiplicity 1
 C        -0.136206         0.199556        -0.210879
 C         1.371770        -0.069861         0.146577
 C         2.120929        -1.476057         0.148914
 C         3.217769        -0.161871         0.139186
 C         4.612842         0.042372         0.486109
 O         4.557288         0.047133         1.991980
 C         3.134541         0.017018         2.429319
 C         2.411971         0.480140         1.204582
 O         2.337367         0.424854        -0.917661
 H        -0.792979        -0.071299         0.597904
 H        -0.327144         1.253072        -0.599560
 H        -0.383850        -0.451769        -1.010871
 H         1.962177        -2.000859         1.133944
 H         2.117839        -2.099504        -0.768919
 H         5.359779        -0.762696         0.501602
 H         4.918885         1.024709         0.129361
 H         2.901933        -1.096231         2.722191
 H         3.135923         0.540875         3.356146
 H         2.419501         1.574403         1.177160
