19
Iteration:  1786
 C        -0.208439         0.029508        -0.177198
 C         1.385836        -0.143714         0.140103
 C         2.408894        -1.326866         0.265683
 C         3.224029        -0.030893         0.047056
 C         4.619695         0.037331         0.488883
 O         4.423065        -0.297726         1.970335
 C         3.087093         0.062957         2.401569
 C         2.377900         0.678004         1.193674
 O         2.304397         0.541252        -0.935169
 H        -0.712632         0.169491         0.900116
 H        -0.385551         0.834864        -0.852519
 H        -0.584404        -0.878758        -0.675352
 H         2.583218        -1.910471         1.166827
 H         2.624132        -2.130322        -0.451786
 H         5.309326        -0.781152        -0.051243
 H         5.184450         0.993461         0.387951
 H         2.548239        -0.622376         2.928157
 H         3.260086         0.810673         3.208409
 H         2.215976         1.774442         1.109670
