19
Iteration:  4365charge 0 multiplicity 1
 C        -0.065325         0.060684        -0.091725
 C         1.480460        -0.094299         0.031852
 C         2.376754        -1.326035         0.007325
 C         3.147065        -0.037205         0.134754
 C         4.568295         0.101406         0.521361
 O         4.476408        -0.178148         1.968285
 C         3.051091        -0.257213         2.467334
 C         2.308956         0.442687         1.266973
 O         2.318625         0.753067        -0.905380
 H        -0.362212         1.012242        -0.738652
 H        -0.706326        -0.781617        -0.464459
 H        -0.349624         0.264543         0.945093
 H         2.114076        -1.974391         0.802909
 H         2.339515        -1.720742        -1.037131
 H         5.333992        -0.611856         0.199663
 H         4.836312         1.112079         0.381533
 H         2.746782        -1.318895         2.647819
 H         3.000995         0.443118         3.385569
 H         2.346959         1.535742         1.368507
