19
Iteration:  2188
 C        -0.117400         0.101361         0.050737
 C         1.397902        -0.082854         0.160353
 C         2.206157        -1.378949        -0.022444
 C         3.199314        -0.144263        -0.003211
 C         4.687018        -0.205621         0.592323
 O         4.449229         0.235129         2.084835
 C         3.047019         0.029476         2.380848
 C         2.373290         0.491073         1.139652
 O         2.363899         0.442131        -1.002048
 H        -0.447353        -0.086457         1.098126
 H        -0.385182         1.092358        -0.238283
 H        -0.586576        -0.501279        -0.741183
 H         2.221706        -2.135867         0.803559
 H         2.322702        -1.786409        -1.068189
 H         5.182751        -1.119145         0.709529
 H         5.364940         0.537638         0.202518
 H         2.834853        -0.994732         2.567967
 H         2.971743         0.646606         3.268378
 H         2.415432         1.633958         1.044885
