19
Iteration:  2485
 C        -0.030480         0.051886        -0.106268
 C         1.373102        -0.111056         0.117965
 C         2.162912        -1.318786         0.180133
 C         3.156738        -0.147188         0.095597
 C         4.611795        -0.099171         0.525832
 O         4.505519         0.001065         1.945908
 C         3.078628         0.044186         2.412568
 C         2.273013         0.551404         1.216940
 O         2.424450         0.530741        -0.983189
 H        -0.405042        -0.457671         0.729192
 H        -0.190221         1.142987        -0.030015
 H        -0.306766        -0.409202        -1.042008
 H         2.288887        -1.858919         1.184803
 H         2.081299        -1.936549        -0.728529
 H         5.157808        -1.125277         0.194772
 H         5.006724         0.823186         0.234288
 H         2.857831        -0.928386         2.970477
 H         3.121021         0.765045         3.297500
 H         2.425847         1.661179         1.020738
