19
Iteration:  3220charge 0 multiplicity 1
 C        -0.049874        -0.024586        -0.106023
 C         1.373969        -0.071873         0.256197
 C         2.211515        -1.324900         0.212443
 C         3.184397        -0.046865         0.104096
 C         4.655297        -0.047447         0.504868
 O         4.495676        -0.226923         1.951542
 C         3.095920         0.144507         2.422584
 C         2.329636         0.678231         1.195890
 O         2.348937         0.486331        -1.054761
 H        -0.548480        -0.934211         0.313994
 H        -0.532063         0.914490         0.240636
 H        -0.180168         0.089691        -1.235040
 H         2.268216        -2.082240         0.928548
 H         2.146810        -1.896266        -0.723510
 H         5.172131        -0.931564         0.277966
 H         5.145670         0.854561         0.191026
 H         2.495032        -0.707895         2.855766
 H         3.105295         0.927366         3.163038
 H         2.232679         1.765020         1.110360
