19
Iteration:  1774
 C        -0.090110        -0.025209        -0.075778
 C         1.398650        -0.172834         0.141919
 C         2.384725        -1.339441         0.211119
 C         3.145921         0.051066         0.126694
 C         4.588285         0.027223         0.536023
 O         4.419921        -0.349960         1.877167
 C         3.041075         0.157371         2.450179
 C         2.354563         0.623653         1.172857
 O         2.389772         0.544462        -0.999559
 H        -0.748140         0.330866         0.852252
 H        -0.180624         0.799146        -0.737305
 H        -0.578334        -0.909337        -0.480399
 H         2.318240        -1.732795         1.206280
 H         2.428857        -1.889701        -0.728059
 H         5.274546        -0.846554         0.112645
 H         5.040533         1.075165         0.519574
 H         2.660240        -0.695859         2.846021
 H         3.261976         1.010566         3.129393
 H         2.117006         1.711824         1.028955
