19
Iteration:  1976charge 0 multiplicity 1
 C         0.029742         0.063947        -0.136224
 C         1.400965        -0.117907         0.147517
 C         2.333993        -1.351095         0.200569
 C         3.180728        -0.081804         0.035130
 C         4.594306         0.061825         0.495323
 O         4.505867        -0.196475         1.993718
 C         3.104347         0.042251         2.439963
 C         2.305546         0.633293         1.216128
 O         2.213430         0.489528        -0.964432
 H        -0.627824         0.078904         0.721176
 H        -0.282593         1.049024        -0.704846
 H        -0.457562        -0.627825        -0.884454
 H         2.338913        -1.908106         1.171888
 H         2.272863        -2.161998        -0.563218
 H         5.251175        -0.860502         0.081534
 H         5.133717         1.030351         0.344393
 H         2.690476        -0.915972         2.773822
 H         3.052300         0.748347         3.318788
 H         2.150124         1.706602         1.044077
