19
Iteration:  3096
 C        -0.125202         0.083112        -0.190557
 C         1.302888        -0.065888         0.224554
 C         2.226910        -1.303600         0.164201
 C         3.205599        -0.183810         0.027071
 C         4.579330        -0.001424         0.534008
 O         4.580086        -0.100717         1.981985
 C         3.077540        -0.007753         2.470661
 C         2.430889         0.609919         1.213905
 O         2.311175         0.489889        -0.958791
 H        -0.796590         0.365256         0.633861
 H        -0.251354         0.932186        -0.912859
 H        -0.295564        -0.887666        -0.704825
 H         2.367132        -1.934396         1.048960
 H         2.194513        -1.862924        -0.746568
 H         5.205662        -0.750200         0.253293
 H         4.995480         0.886132         0.086202
 H         2.832522        -1.111178         2.591274
 H         3.053437         0.649754         3.398469
 H         2.485658         1.755517         1.210653
