19
Iteration:  3583charge 0 multiplicity 1
 C        -0.015844         0.174339        -0.123614
 C         1.366496        -0.165288         0.214753
 C         2.239226        -1.475674         0.077110
 C         3.151570        -0.130648         0.097593
 C         4.616110         0.022957         0.540571
 O         4.504259        -0.100770         1.931300
 C         3.085348         0.163563         2.443971
 C         2.331151         0.570850         1.132573
 O         2.320323         0.418140        -0.877389
 H        -0.439763         0.788483         0.673138
 H         0.030090         0.762046        -1.039005
 H        -0.638918        -0.686813        -0.164700
 H         2.481836        -2.214155         0.929419
 H         2.063632        -1.824713        -0.934187
 H         5.291346        -0.778265         0.118427
 H         5.080623         0.988879         0.355337
 H         2.584932        -0.834561         2.811202
 H         3.200349         0.981210         3.266163
 H         2.288361         1.648068         1.080583
