19
Iteration:   505charge 0 multiplicity 1
 C        -0.057693         0.055047        -0.130597
 C         1.407735        -0.050428         0.156774
 C         2.299987        -1.349045         0.134013
 C         3.199317        -0.127988         0.064087
 C         4.648690        -0.030720         0.495213
 O         4.455588         0.031041         1.947901
 C         3.036224        -0.068777         2.357335
 C         2.305624         0.580937         1.265914
 O         2.323237         0.453110        -0.880106
 H        -0.626628        -0.556016         0.469647
 H        -0.487773         1.124989         0.121300
 H        -0.178391        -0.154719        -1.237555
 H         2.246573        -1.934949         1.040850
 H         2.220003        -1.831246        -0.830431
 H         5.411065        -0.810048         0.374597
 H         5.134336         0.977246         0.189627
 H         2.771661        -1.076646         2.611153
 H         3.033801         0.527057         3.398326
 H         2.359749         1.717327         1.217724
