19
Iteration:  2294
 C        -0.061156         0.139461        -0.211870
 C         1.396005        -0.125564         0.059412
 C         2.246508        -1.415801         0.296889
 C         3.197717        -0.189462         0.168356
 C         4.609996         0.152637         0.575615
 O         4.463053        -0.264688         1.946987
 C         3.175398         0.144253         2.452335
 C         2.422337         0.645007         1.105178
 O         2.238101         0.395897        -0.964739
 H        -0.839454        -0.387790         0.418524
 H        -0.401449         1.119247         0.040099
 H        -0.338908        -0.149749        -1.194055
 H         2.149113        -1.840368         1.264940
 H         2.321835        -2.168864        -0.469560
 H         5.531658        -0.161705         0.081448
 H         4.579830         1.253687         0.315172
 H         2.659862        -0.726925         2.855517
 H         3.305493         0.891588         3.292419
 H         2.398590         1.686832         0.879199
