19
Iteration:   448charge 0 multiplicity 1
 C        -0.097877         0.003082         0.048188
 C         1.414180        -0.059957         0.078675
 C         2.427784        -1.371506         0.055931
 C         3.274624        -0.070552         0.104343
 C         4.685745         0.128222         0.632827
 O         4.356965        -0.450493         1.942241
 C         3.019235         0.271464         2.454001
 C         2.392018         0.561689         1.142282
 O         2.204839         0.518466        -1.011611
 H        -0.618586        -0.337875         0.949400
 H        -0.452494         0.971787        -0.366652
 H        -0.302398        -0.726745        -0.779955
 H         2.279351        -2.240313         0.686587
 H         2.459771        -1.846064        -0.964838
 H         5.468136        -0.466615         0.222601
 H         5.054591         1.249121         0.741268
 H         2.573398        -0.394201         3.192258
 H         3.182003         1.338892         2.871087
 H         2.398732         1.638210         0.913216
