19
Iteration:   826
 C        -0.103769         0.211496        -0.165852
 C         1.352816        -0.168163         0.088587
 C         2.156687        -1.427863        -0.041679
 C         3.129840        -0.173474         0.204094
 C         4.623179        -0.067282         0.567474
 O         4.521552         0.353358         1.935766
 C         3.187723        -0.145530         2.449635
 C         2.337653         0.378897         1.310039
 O         2.396946         0.517272        -0.844644
 H        -0.933124        -0.292444         0.558744
 H        -0.223504         1.205378        -0.263689
 H        -0.340467        -0.189800        -1.183104
 H         2.088111        -2.244528         0.728038
 H         2.067535        -1.930081        -1.028554
 H         5.237416        -0.861287         0.336768
 H         5.110348         0.669350        -0.073562
 H         3.333401        -1.330296         2.459160
 H         2.794454         0.189109         3.432801
 H         2.389144         1.410576         1.189485
