19
Iteration:  3999charge 0 multiplicity 1
 C        -0.157217         0.071286        -0.073083
 C         1.365979        -0.124655         0.222780
 C         2.172924        -1.424285        -0.024764
 C         3.233898        -0.175764         0.012891
 C         4.658858        -0.011059         0.570081
 O         4.530474        -0.015303         2.045027
 C         3.040895         0.052975         2.417077
 C         2.393354         0.509533         1.107405
 O         2.377845         0.569859        -0.869516
 H        -0.076814         0.583984        -1.081190
 H        -0.681882        -0.849436         0.071546
 H        -0.464293         0.914985         0.588440
 H         2.199100        -2.123815         0.827410
 H         1.864893        -1.773246        -1.012484
 H         5.364684        -0.739553         0.226769
 H         5.120947         0.972798         0.323970
 H         2.644081        -1.048061         2.717612
 H         3.155772         0.668303         3.317713
 H         2.265703         1.582099         0.980620
