19
Iteration:  3215charge 0 multiplicity 1
 C        -0.104602        -0.024253        -0.103206
 C         1.399275        -0.080404         0.224142
 C         2.220393        -1.304513         0.197949
 C         3.151045        -0.063463         0.104101
 C         4.662304        -0.036243         0.531672
 O         4.451834        -0.223523         1.939152
 C         3.103547         0.146947         2.392119
 C         2.356998         0.657874         1.208201
 O         2.374202         0.485015        -1.056115
 H        -0.565255        -0.880679         0.363240
 H        -0.591047         0.830292         0.372543
 H        -0.172367         0.047413        -1.155133
 H         2.407285        -1.979063         1.152236
 H         2.046565        -1.811108        -0.758334
 H         5.293249        -0.990940         0.301656
 H         5.294866         0.856204         0.192949
 H         2.610394        -0.739350         2.897584
 H         3.117210         0.988005         3.155440
 H         2.300910         1.777626         1.236729
