19
Iteration:  4976charge 0 multiplicity 1
 C        -0.186442         0.050456        -0.008220
 C         1.410172        -0.123768         0.083332
 C         2.456148        -1.314708        -0.118323
 C         3.175075         0.064761         0.135234
 C         4.615238         0.174723         0.607177
 O         4.467975        -0.354271         1.921759
 C         3.078863        -0.200478         2.416301
 C         2.332970         0.591826         1.273194
 O         2.299264         0.659664        -0.889569
 H        -0.162416         0.992150        -0.688034
 H        -0.688807        -0.863772        -0.567226
 H        -0.561812         0.188069         1.086001
 H         2.344855        -2.069756         0.668946
 H         2.666221        -1.831347        -0.993280
 H         5.389531        -0.516257         0.159521
 H         4.925648         1.298405         0.552641
 H         2.601929        -1.146268         2.614231
 H         3.054923         0.404745         3.260728
 H         1.996077         1.578703         1.279274
