19
Iteration:  4415
 C        -0.079801         0.005645        -0.086980
 C         1.408074        -0.108672         0.070862
 C         2.409654        -1.266920        -0.060911
 C         3.168223        -0.019618         0.073002
 C         4.632182         0.118002         0.571060
 O         4.451318        -0.362817         1.965783
 C         3.055285        -0.081872         2.434840
 C         2.373406         0.541934         1.221357
 O         2.239182         0.694061        -0.823969
 H        -0.361191         1.017710        -0.273891
 H        -0.387225        -0.653500        -0.913369
 H        -0.629701        -0.183731         0.873588
 H         2.600966        -1.850623         0.939226
 H         2.302680        -1.789333        -1.049430
 H         5.372966        -0.581444         0.202884
 H         5.091236         1.132857         0.726928
 H         2.482843        -0.996256         2.580436
 H         3.068845         0.543207         3.279092
 H         2.229994         1.632649         1.238928
