19
Iteration:  4327
 C        -0.059888         0.098932        -0.099133
 C         1.298059        -0.164914         0.126745
 C         2.338873        -1.309445        -0.136221
 C         3.239799        -0.057602         0.068666
 C         4.597349         0.014999         0.613847
 O         4.508848        -0.061391         2.073890
 C         3.088173        -0.225886         2.456241
 C         2.396459         0.484448         1.296242
 O         2.236485         0.692902        -0.946700
 H        -0.043842         1.077071        -0.473318
 H        -0.479107        -0.640785        -0.802379
 H        -0.657479         0.251600         0.854346
 H         2.332625        -2.325607         0.387819
 H         2.233172        -1.565903        -1.170711
 H         5.211995        -0.708977         0.064445
 H         5.070409         1.062862         0.351297
 H         2.850882        -1.282837         2.596509
 H         2.992214         0.230198         3.377599
 H         2.202833         1.554074         1.421690
