19
Iteration:   311
 C        -0.036199         0.223137        -0.093317
 C         1.426369        -0.163492         0.125445
 C         2.185354        -1.440486         0.088848
 C         3.151290        -0.231598         0.102396
 C         4.629647         0.014529         0.557648
 O         4.491223         0.279022         1.957926
 C         3.108041        -0.133751         2.459384
 C         2.304681         0.396334         1.237839
 O         2.340549         0.476619        -1.011864
 H        -0.663759        -0.486921         0.421997
 H        -0.167546         1.328829         0.353208
 H        -0.352385         0.303091        -1.204238
 H         2.130263        -2.164176         0.998731
 H         2.259342        -1.997956        -0.859992
 H         5.333653        -0.918780         0.400094
 H         5.089475         0.853131         0.029182
 H         3.000502        -1.189095         2.794871
 H         2.866081         0.529311         3.295550
 H         2.390797         1.519442         1.443475
