19
Iteration:  3756charge 0 multiplicity 1
 C        -0.133165         0.065087        -0.115739
 C         1.412996        -0.091605         0.089429
 C         2.289005        -1.283240         0.134803
 C         3.185824        -0.067027         0.127283
 C         4.606207         0.077817         0.593870
 O         4.483746        -0.262979         1.946786
 C         3.102643         0.003679         2.420783
 C         2.391663         0.589149         1.239151
 O         2.315004         0.479287        -1.015766
 H        -0.442477         0.363078        -1.177243
 H        -0.764184        -0.798466         0.381449
 H        -0.333792         0.902169         0.589301
 H         2.248077        -1.862471         1.093098
 H         2.484849        -1.864394        -0.759725
 H         5.265717        -0.628546         0.068275
 H         4.850417         1.208783         0.378171
 H         2.645831        -0.898930         2.765251
 H         3.054106         0.722036         3.252359
 H         2.377395         1.697188         1.185636
