19
Iteration:   678charge 0 multiplicity 1
 C        -0.075694        -0.020359        -0.112836
 C         1.386005        -0.146778         0.065127
 C         2.397947        -1.337756         0.109656
 C         3.191944        -0.023984         0.108336
 C         4.627341         0.044601         0.612532
 O         4.425515        -0.352607         1.943342
 C         3.144084         0.225184         2.429988
 C         2.341515         0.557088         1.175503
 O         2.205390         0.562568        -0.919105
 H        -0.603583        -0.494968         0.629755
 H        -0.241871         1.142786        -0.080314
 H        -0.358206        -0.408172        -1.129800
 H         2.369671        -1.961081         1.034192
 H         2.358133        -2.048603        -0.732778
 H         5.200972        -0.836727         0.184316
 H         5.040378         1.004492         0.404466
 H         2.839008        -0.489811         3.167747
 H         3.366923         1.277116         2.871650
 H         2.196396         1.706892         1.154446
