19
Iteration:   483charge 0 multiplicity 1
 C        -0.104936         0.084277        -0.036661
 C         1.405947        -0.218234         0.098223
 C         2.321825        -1.437460         0.111081
 C         3.185126        -0.049252         0.071354
 C         4.568861         0.073694         0.537212
 O         4.491948        -0.185683         2.001521
 C         3.029604         0.119181         2.442304
 C         2.350319         0.493326         1.172180
 O         2.368002         0.563578        -0.987983
 H        -0.726235        -0.349822         0.657975
 H        -0.344356         1.231087         0.053041
 H        -0.398562        -0.265953        -1.078871
 H         2.305920        -2.007813         1.036862
 H         2.369337        -1.915831        -0.850913
 H         5.284260        -0.670940         0.115863
 H         4.945364         1.186087         0.375033
 H         2.773155        -0.794593         2.929639
 H         3.063123         0.958217         3.286609
 H         2.315353         1.625871         1.060276
