19
Iteration:  4174
 C        -0.144093         0.035133        -0.096138
 C         1.413363        -0.102803         0.081076
 C         2.352505        -1.258972         0.057607
 C         3.233964        -0.093295         0.115128
 C         4.652304         0.112089         0.614805
 O         4.462435        -0.309434         1.973531
 C         3.063694        -0.072988         2.420299
 C         2.361158         0.525323         1.172093
 O         2.257959         0.654826        -0.930849
 H        -0.589917        -0.254206         0.864105
 H        -0.310366         1.119424        -0.060458
 H        -0.485489        -0.488970        -1.108028
 H         2.418955        -1.809457         0.999286
 H         2.616954        -1.868332        -0.736881
 H         5.345727        -0.533302         0.137613
 H         4.800487         1.228678         0.567875
 H         2.512370        -1.065409         2.600176
 H         3.031661         0.615365         3.199664
 H         2.363164         1.627626         1.026816
