19
Iteration:  4398charge 0 multiplicity 1
 C        -0.191514        -0.007504        -0.120887
 C         1.392283        -0.090523         0.192026
 C         2.343526        -1.331058        -0.038113
 C         3.282111         0.008582         0.122590
 C         4.697141         0.150940         0.606181
 O         4.426193        -0.312399         1.950037
 C         3.019581        -0.147003         2.391391
 C         2.391589         0.536649         1.236138
 O         2.299690         0.692488        -0.876560
 H        -0.429596         1.078012        -0.491557
 H        -0.468861        -0.900939        -0.744677
 H        -0.777586         0.116654         0.785200
 H         2.176787        -2.207904         0.500811
 H         2.339221        -1.482825        -1.135901
 H         5.493022        -0.441899         0.125292
 H         4.910935         1.205318         0.364499
 H         2.775582        -1.172957         2.737687
 H         3.103226         0.485465         3.363757
 H         2.471985         1.632539         1.204810
