19
Iteration:   223
 C        -0.047282        -0.020485        -0.074877
 C         1.366567        -0.162546         0.209263
 C         2.301030        -1.333251         0.017319
 C         3.194501        -0.096827         0.068048
 C         4.626649         0.056233         0.623034
 O         4.497425        -0.284741         2.009376
 C         3.090660         0.219247         2.390701
 C         2.350504         0.601127         1.159419
 O         2.254752         0.532456        -0.951632
 H        -0.638663        -0.171291         0.735582
 H        -0.288122         1.083700        -0.374630
 H        -0.350665        -0.724066        -0.916861
 H         2.151173        -2.045753         0.948336
 H         2.316652        -1.779583        -0.989909
 H         5.418414        -0.637756         0.175382
 H         5.101755         0.994767         0.443138
 H         2.680805        -0.721481         2.833311
 H         3.218336         0.989801         3.197150
 H         2.188348         1.715363         0.865498
