19
Iteration:  4705charge 0 multiplicity 1
 C        -0.092606         0.031342        -0.058409
 C         1.441917        -0.082065         0.036789
 C         2.437754        -1.284715        -0.051426
 C         3.186113         0.019194         0.143768
 C         4.599359         0.144350         0.539343
 O         4.471554        -0.379668         1.951872
 C         3.035040        -0.111886         2.423629
 C         2.341636         0.527133         1.253789
 O         2.231969         0.666115        -0.871172
 H        -0.331809         1.017690        -0.348246
 H        -0.464321        -0.768156        -0.693571
 H        -0.524684         0.014084         0.984537
 H         2.553160        -1.959041         0.880700
 H         2.561201        -1.736267        -1.057343
 H         5.289483        -0.510957         0.111840
 H         4.956531         1.168470         0.501778
 H         2.496933        -1.036389         2.791428
 H         3.118516         0.532987         3.305695
 H         2.121893         1.606545         1.331985
