19
Iteration:  1027
 C        -0.114261         0.055534        -0.200517
 C         1.360360        -0.057710         0.110848
 C         2.187677        -1.299982         0.085012
 C         3.213138        -0.125382         0.094272
 C         4.643717         0.010438         0.531749
 O         4.536728        -0.014043         2.014063
 C         3.122143        -0.073604         2.444431
 C         2.342970         0.523458         1.254201
 O         2.328539         0.497957        -0.917260
 H        -0.592891        -0.439042         0.592015
 H        -0.443324         1.210318        -0.146451
 H        -0.360335        -0.399771        -1.150164
 H         2.076267        -1.893488         1.076107
 H         2.167960        -1.941806        -0.858615
 H         5.199138        -0.930672         0.246151
 H         5.045414         0.929468         0.040404
 H         3.056681        -1.199121         2.851828
 H         3.070492         0.692386         3.242226
 H         2.295486         1.675760         1.272303
