19
Iteration:   592charge 0 multiplicity 1
 C        -0.067494         0.189151        -0.032663
 C         1.312481        -0.217057         0.183248
 C         2.247317        -1.442031        -0.110404
 C         3.155185        -0.137874         0.087055
 C         4.694529        -0.087383         0.591059
 O         4.446966         0.240625         2.005336
 C         3.159876        -0.038354         2.458073
 C         2.319097         0.411316         1.212135
 O         2.342107         0.512031        -0.963679
 H        -0.630211        -0.189103         0.774480
 H        -0.244910         1.357022        -0.173293
 H        -0.536462        -0.282767        -0.947548
 H         2.234564        -2.296503         0.602190
 H         2.267581        -1.757517        -1.154760
 H         5.221208        -1.030839         0.536953
 H         5.419254         0.548054         0.084888
 H         3.007625        -0.995747         2.862421
 H         2.970927         0.743018         3.333083
 H         2.237277         1.572595         1.306388
