19
Iteration:  4816
 C        -0.043359         0.019533        -0.042139
 C         1.447722        -0.011834         0.076049
 C         2.343925        -1.289178        -0.104056
 C         3.190104        -0.095226         0.084159
 C         4.636797         0.029073         0.504926
 O         4.473028        -0.063616         1.978394
 C         3.066768        -0.193294         2.446532
 C         2.261139         0.471161         1.337502
 O         2.302777         0.622713        -0.865909
 H        -0.434453         0.646637         0.743678
 H        -0.318059         0.618370        -0.911378
 H        -0.714986        -0.810640         0.046367
 H         2.180999        -2.192726         0.611294
 H         2.222288        -1.634298        -1.111867
 H         5.327189        -0.710756         0.133748
 H         4.983575         0.991022         0.324757
 H         2.597523        -1.238409         2.627799
 H         3.108304         0.434243         3.367221
 H         2.226708         1.628796         1.288083
