19
Iteration:   655charge 0 multiplicity 1
 C        -0.193168         0.044849        -0.092662
 C         1.350206        -0.145885         0.195467
 C         2.310009        -1.349958         0.077223
 C         3.191747        -0.111349         0.079654
 C         4.632069         0.076208         0.497551
 O         4.494726        -0.192852         2.010211
 C         3.075142         0.102124         2.443638
 C         2.363275         0.599162         1.183622
 O         2.387827         0.508920        -0.966842
 H        -0.650477        -0.483773         0.675407
 H        -0.531500         1.151357        -0.116483
 H        -0.390249        -0.527417        -1.044785
 H         2.399938        -2.068434         0.923428
 H         2.340736        -1.970555        -0.836412
 H         5.377845        -0.764437         0.249461
 H         4.876798         1.102063         0.231330
 H         2.749880        -0.880613         2.784299
 H         3.094748         0.893351         3.283505
 H         2.288133         1.743296         1.095665
