19
Iteration:  2289
 C        -0.048777         0.144280        -0.220518
 C         1.387250        -0.146580         0.070199
 C         2.238892        -1.392924         0.274191
 C         3.210924        -0.204395         0.201224
 C         4.581756         0.183955         0.545094
 O         4.463691        -0.266043         1.948875
 C         3.146073         0.151961         2.417981
 C         2.421084         0.625312         1.120692
 O         2.233308         0.391491        -0.947708
 H        -0.725250        -0.326950         0.487466
 H        -0.401437         1.244161         0.025203
 H        -0.297854        -0.315324        -1.246050
 H         2.068953        -1.758871         1.337580
 H         2.356754        -2.221780        -0.464893
 H         5.496266        -0.291828         0.133499
 H         4.843499         1.393222         0.385667
 H         2.823851        -0.819366         2.868425
 H         3.315696         0.841628         3.217338
 H         2.543119         1.730530         0.880668
