19
Iteration:  3380charge 0 multiplicity 1
 C        -0.053199         0.070059        -0.170042
 C         1.379508        -0.114173         0.231435
 C         2.195829        -1.406092         0.139473
 C         3.102069        -0.243415         0.003151
 C         4.566963        -0.109810         0.560574
 O         4.524202         0.057228         1.972779
 C         3.178078         0.135439         2.422798
 C         2.341041         0.557360         1.210079
 O         2.371771         0.548513        -0.936825
 H        -0.674968        -0.545691         0.522046
 H        -0.428650         1.016907         0.043198
 H        -0.126462        -0.040492        -1.288967
 H         2.079045        -1.946159         1.134991
 H         2.078815        -2.072084        -0.742830
 H         5.171037        -1.060693         0.375837
 H         5.139870         0.791227         0.213874
 H         2.670330        -1.026965         2.696855
 H         3.112195         0.717445         3.368249
 H         2.547917         1.645307         0.885274
