19
Iteration:  1061charge 0 multiplicity 1
 C        -0.064653         0.227173        -0.068943
 C         1.409265        -0.192669         0.201878
 C         2.275107        -1.394522         0.026993
 C         3.184209        -0.175710         0.033234
 C         4.564954        -0.050658         0.538360
 O         4.479081         0.190730         2.046236
 C         3.084119        -0.089100         2.336888
 C         2.312155         0.475444         1.183291
 O         2.376411         0.462123        -0.892866
 H        -0.827539        -0.420872         0.403678
 H        -0.153439         1.297269         0.423628
 H        -0.323799         0.350179        -1.100056
 H         2.280737        -2.111516         0.878240
 H         2.283332        -1.915027        -0.964286
 H         5.207882        -0.975751         0.492818
 H         5.111733         0.733683        -0.048490
 H         2.930417        -1.242509         2.646190
 H         2.764534         0.485953         3.249785
 H         2.284042         1.594972         1.100195
