19
Iteration:  2825charge 0 multiplicity 1
 C        -0.005668         0.076469         0.026003
 C         1.422045        -0.044763         0.159768
 C         2.235471        -1.334998         0.057017
 C         3.177749        -0.100383         0.116540
 C         4.609189        -0.005661         0.537933
 O         4.411756        -0.169846         1.977595
 C         3.058423         0.090171         2.454184
 C         2.323039         0.554422         1.134289
 O         2.389237         0.485620        -1.066152
 H        -0.476538        -0.408235         0.914338
 H        -0.525660         1.049544        -0.134700
 H        -0.408873        -0.606238        -0.764532
 H         2.311766        -1.949575         1.001205
 H         2.274022        -1.950335        -0.847571
 H         5.307323        -0.838020         0.280522
 H         5.072096         0.927806         0.339418
 H         2.840685        -0.880643         3.168106
 H         3.086207         0.956357         3.186169
 H         2.285455         1.659268         0.990183
