19
Iteration:  4851charge 0 multiplicity 1
 C        -0.229026         0.125754        -0.073655
 C         1.336420        -0.105210         0.155665
 C         2.259658        -1.325739        -0.108595
 C         3.292539        -0.116507         0.051377
 C         4.688125         0.087436         0.548701
 O         4.461068         0.027648         2.054444
 C         3.108420        -0.278184         2.396312
 C         2.360931         0.404408         1.233067
 O         2.325123         0.650870        -0.853599
 H        -0.328113         1.056282         0.601148
 H        -0.369163         0.371570        -1.142510
 H        -0.758524        -0.824569         0.135357
 H         2.396394        -2.099504         0.678953
 H         2.227763        -1.790485        -1.154818
 H         5.394781        -0.743719         0.179412
 H         5.068264         1.044712         0.255276
 H         2.977717        -1.366779         2.634471
 H         3.076409         0.246320         3.445142
 H         2.353821         1.590505         1.277537
