19
Iteration:  2620charge 0 multiplicity 1
 C        -0.064298         0.114849        -0.273604
 C         1.360595        -0.051533         0.129500
 C         2.306945        -1.399070         0.207539
 C         3.211957        -0.139779         0.206365
 C         4.643640         0.028601         0.484068
 O         4.484278        -0.197377         1.937822
 C         3.074175         0.101968         2.398329
 C         2.414497         0.604698         1.202341
 O         2.213780         0.498340        -0.878318
 H        -0.612192         0.283443         0.691110
 H        -0.404590         0.955762        -0.802799
 H        -0.456967        -0.848185        -0.608885
 H         2.302249        -2.146274         1.007959
 H         2.268352        -1.878218        -0.799706
 H         5.165745        -0.876121         0.194195
 H         5.150426         0.977937         0.362661
 H         2.785389        -0.937176         2.847613
 H         3.158156         0.701637         3.258383
 H         2.527384         1.670557         1.195722
