19
Iteration:  3539
 C        -0.114529         0.016051        -0.119192
 C         1.422288        -0.091167         0.207611
 C         2.195263        -1.336105         0.239125
 C         3.218926        -0.025990         0.033154
 C         4.654187         0.035518         0.575918
 O         4.473103        -0.303860         1.966189
 C         3.083742         0.145219         2.376363
 C         2.378879         0.716574         1.182979
 O         2.341968         0.425479        -1.061505
 H        -0.627009        -0.075635         0.858457
 H        -0.649222         0.912781        -0.591204
 H        -0.459021        -0.874675        -0.599406
 H         2.117068        -1.784814         1.312684
 H         2.136751        -1.993351        -0.612906
 H         5.348121        -0.809166         0.267552
 H         5.175506         1.041066         0.362005
 H         2.678607        -0.839891         2.924303
 H         3.262181         0.984062         3.157215
 H         2.339513         1.802170         1.039903
