19
Iteration:  3914
 C        -0.060701         0.069649        -0.075183
 C         1.394340        -0.014119        -0.004852
 C         2.222404        -1.333665         0.020768
 C         3.159147        -0.209453         0.129925
 C         4.598757         0.011773         0.499640
 O         4.487231        -0.073489         1.996808
 C         3.101069         0.019132         2.498225
 C         2.409052         0.474000         1.252351
 O         2.340578         0.540805        -0.905542
 H        -0.494822        -0.312656        -0.981835
 H        -0.600365        -0.503715         0.618073
 H        -0.415143         1.148921         0.036321
 H         2.075482        -2.174496         0.797649
 H         2.362490        -1.787455        -0.984071
 H         5.421492        -0.689444         0.132303
 H         4.900354         1.105846         0.259290
 H         2.665241        -0.920415         2.812442
 H         2.940612         0.718587         3.379857
 H         2.439975         1.566254         1.173185
