19
Iteration:  3493
 C        -0.076155         0.002577         0.006400
 C         1.364482        -0.114082         0.095787
 C         2.293661        -1.353644         0.187358
 C         3.223597        -0.059672         0.029220
 C         4.689434        -0.098143         0.579430
 O         4.422496        -0.245337         2.006748
 C         3.077249         0.264181         2.444097
 C         2.353622         0.638211         1.112476
 O         2.300240         0.492593        -1.080076
 H        -0.685822        -0.710221         0.491765
 H        -0.315194         1.005727         0.426409
 H        -0.344325         0.055586        -0.991213
 H         2.349374        -1.879460         1.198776
 H         2.176591        -2.092920        -0.668779
 H         5.215765        -0.954041         0.215636
 H         5.313124         0.831444         0.423259
 H         2.636579        -0.629261         3.154042
 H         3.311251         1.189448         3.075539
 H         2.092502         1.704876         0.934958
