19
Iteration:  1775charge 0 multiplicity 1
 C        -0.103689        -0.021946        -0.083978
 C         1.401313        -0.173590         0.140857
 C         2.387225        -1.340944         0.219529
 C         3.146832         0.047026         0.123339
 C         4.585787         0.028281         0.528030
 O         4.423528        -0.344385         1.879986
 C         3.040305         0.148747         2.447965
 C         2.367159         0.629544         1.175690
 O         2.386125         0.548054        -0.996300
 H        -0.772299         0.338879         0.851082
 H        -0.193405         0.818514        -0.733780
 H        -0.587295        -0.922504        -0.492738
 H         2.333177        -1.737779         1.225957
 H         2.464398        -1.899291        -0.718777
 H         5.285350        -0.842773         0.117958
 H         5.054395         1.036438         0.555745
 H         2.630332        -0.694845         2.864452
 H         3.271916         0.991972         3.122489
 H         2.086639         1.675322         0.998472
