19
Iteration:  2274
 C        -0.039581         0.112397        -0.187794
 C         1.397733        -0.087775         0.137514
 C         2.237030        -1.392174         0.274020
 C         3.163049        -0.092410         0.083535
 C         4.647111         0.125671         0.538299
 O         4.491202        -0.200869         1.916233
 C         3.090410         0.117053         2.429921
 C         2.329027         0.563377         1.211518
 O         2.321183         0.367569        -0.950002
 H        -0.760288        -0.172636         0.619522
 H        -0.160378         1.121604        -0.399508
 H        -0.318372        -0.416026        -1.094694
 H         2.267872        -1.970421         1.201524
 H         2.140424        -2.039022        -0.630390
 H         5.355274        -0.654505         0.022766
 H         4.938517         1.104841         0.335711
 H         2.601793        -0.716979         2.976062
 H         3.126686         1.044269         3.125319
 H         2.340144         1.703817         1.091885
