19
Iteration:  1922charge 0 multiplicity 1
 C        -0.055325         0.078686        -0.113033
 C         1.388165        -0.118899         0.016545
 C         2.139540        -1.384366         0.048711
 C         3.125942        -0.221739         0.180211
 C         4.546034        -0.139280         0.587581
 O         4.548633         0.191842         1.961643
 C         3.206600         0.013497         2.439194
 C         2.341369         0.484124         1.268058
 O         2.400300         0.548445        -0.957290
 H        -0.679040        -0.680214         0.337807
 H        -0.436345         0.962519         0.558639
 H        -0.364832         0.083776        -1.197845
 H         1.975212        -2.062932         0.959438
 H         2.244802        -2.022321        -0.875957
 H         5.140811        -1.031451         0.121421
 H         5.044972         0.735900         0.130859
 H         2.822452        -0.868287         2.882591
 H         2.919144         0.741531         3.219130
 H         2.275351         1.597863         1.218949
