19
Iteration:  2071charge 0 multiplicity 1
 C        -0.113628        -0.047322        -0.002887
 C         1.370664        -0.125961         0.164726
 C         2.363692        -1.319549         0.122675
 C         3.257481         0.001817         0.046994
 C         4.632877        -0.075478         0.576886
 O         4.460026        -0.226401         2.011146
 C         3.068740         0.172749         2.441342
 C         2.288523         0.657796         1.073419
 O         2.325419         0.506877        -0.990768
 H        -0.530410        -0.576141         0.811886
 H        -0.440855         1.038303         0.021267
 H        -0.464840        -0.206449        -1.051459
 H         2.333163        -2.033900         0.923456
 H         2.552915        -1.857359        -0.816614
 H         4.944945        -1.016969         0.128979
 H         5.244573         0.796068         0.185960
 H         2.380662        -0.695013         2.802122
 H         3.138854         1.014146         3.122079
 H         2.281118         1.714417         1.022002
