19
Iteration:   365
 C        -0.042829         0.087578        -0.109986
 C         1.390785        -0.134286         0.134099
 C         2.220278        -1.407171         0.046843
 C         3.196753        -0.153499         0.014713
 C         4.599043         0.059033         0.538313
 O         4.522758        -0.061664         2.057102
 C         3.113701         0.056719         2.486716
 C         2.391030         0.518840         1.182247
 O         2.247620         0.492613        -0.947469
 H        -0.668569        -0.453087         0.584440
 H        -0.397558         1.219797        -0.074729
 H        -0.109339        -0.385230        -1.148503
 H         2.368712        -1.792101         1.059586
 H         2.022249        -1.986837        -0.841141
 H         5.429255        -0.645477         0.234481
 H         4.983063         1.020877         0.237531
 H         2.701887        -0.858987         2.880229
 H         2.925022         0.820655         3.245967
 H         2.419659         1.671148         1.106635
