19
Iteration:  1785
 C        -0.208605         0.026090        -0.171508
 C         1.390732        -0.150009         0.140101
 C         2.405735        -1.327797         0.266901
 C         3.218772        -0.026771         0.050435
 C         4.608560         0.035354         0.487331
 O         4.424787        -0.299905         1.962605
 C         3.079929         0.064514         2.402731
 C         2.385322         0.676473         1.196789
 O         2.313477         0.545877        -0.940526
 H        -0.717988         0.188105         0.892572
 H        -0.370412         0.829164        -0.834175
 H        -0.579952        -0.873229        -0.654064
 H         2.569944        -1.912156         1.157314
 H         2.644523        -2.118890        -0.452203
 H         5.317226        -0.774142        -0.042060
 H         5.212257         0.996009         0.434889
 H         2.537784        -0.606405         2.946329
 H         3.272154         0.821615         3.209789
 H         2.159364         1.771915         1.064555
