19
Iteration:  2239charge 0 multiplicity 1
 C        -0.122915        -0.004381        -0.019493
 C         1.421403        -0.107082         0.154984
 C         2.265995        -1.382131         0.090213
 C         3.229291        -0.025732         0.071193
 C         4.601470        -0.144823         0.575949
 O         4.478968         0.000271         2.002466
 C         2.988494         0.124356         2.385065
 C         2.371956         0.575784         1.124328
 O         2.370494         0.502285        -0.971466
 H        -0.640187         0.176092         0.984301
 H        -0.293946         0.924958        -0.617464
 H        -0.544268        -0.773921        -0.600128
 H         2.417682        -2.005573         0.951019
 H         2.161785        -1.888818        -0.840558
 H         5.002499        -1.250340         0.332318
 H         5.343880         0.520273         0.214546
 H         2.736296        -0.911802         2.828952
 H         3.109660         0.917739         3.218785
 H         2.472946         1.660919         0.996855
