19
Iteration:   887
 C        -0.201314         0.038644        -0.089307
 C         1.376895        -0.123820         0.105392
 C         2.303750        -1.344906         0.015516
 C         3.210216        -0.060338         0.079022
 C         4.697012        -0.089970         0.573338
 O         4.525671        -0.006684         1.959595
 C         3.066181         0.033842         2.455074
 C         2.258423         0.526553         1.233388
 O         2.361949         0.552303        -0.923439
 H        -0.583937        -0.702654         0.575185
 H        -0.512141         1.116685         0.351398
 H        -0.517135        -0.204984        -1.095874
 H         2.538033        -2.003331         0.837635
 H         2.172741        -1.845446        -0.981814
 H         5.075877        -1.152725         0.304123
 H         5.229276         0.809965         0.269770
 H         2.852013        -0.972232         2.683431
 H         3.062378         0.648580         3.387358
 H         2.374181         1.659257         1.172539
