19
Iteration:  3231
 C        -0.012206         0.042160        -0.135307
 C         1.396070        -0.098421         0.230293
 C         2.262148        -1.363905         0.178205
 C         3.168530        -0.050175         0.064820
 C         4.567863        -0.087222         0.481206
 O         4.537163        -0.196401         1.999340
 C         3.055331         0.162916         2.443691
 C         2.347964         0.702395         1.141132
 O         2.291581         0.451609        -0.923830
 H        -0.658617        -0.815608         0.180673
 H        -0.520555         0.985947         0.191980
 H         0.018727        -0.197289        -1.270183
 H         2.062132        -1.895523         1.047713
 H         2.321472        -1.807048        -0.823505
 H         5.092202        -0.721851        -0.146960
 H         5.005299         0.868662         0.337460
 H         2.725946        -0.892276         2.809577
 H         3.351704         0.763187         3.286072
 H         2.339359         1.769288         0.889487
