19
Iteration:  4778
 C        -0.116142        -0.041595        -0.062284
 C         1.394735        -0.143290         0.150212
 C         2.323977        -1.273477        -0.004896
 C         3.190682         0.012239        -0.003881
 C         4.612201         0.032652         0.559584
 O         4.517615        -0.281267         2.019661
 C         3.079114        -0.087721         2.387355
 C         2.283856         0.533157         1.284444
 O         2.300539         0.775271        -0.960750
 H        -0.348006         0.691204         0.790206
 H        -0.134062         0.268805        -1.113773
 H        -0.653139        -1.010035        -0.020242
 H         2.410380        -1.781836         0.930881
 H         2.219435        -1.909565        -0.960581
 H         5.392517        -0.687796         0.193353
 H         5.045564         1.108071         0.425119
 H         2.865028        -1.144845         2.824566
 H         3.023438         0.448456         3.337622
 H         2.290511         1.570799         1.472886
