19
Iteration:  2378charge 0 multiplicity 1
 C        -0.117641        -0.020310         0.019112
 C         1.434775        -0.000270         0.128098
 C         2.163624        -1.326707         0.017805
 C         3.252661        -0.171256         0.045139
 C         4.744138        -0.175150         0.689265
 O         4.476441         0.048853         2.066363
 C         3.051015         0.072043         2.405007
 C         2.399498         0.683771         1.145236
 O         2.265345         0.448322        -1.083553
 H        -0.397616        -0.576748         0.979653
 H        -0.348619         1.165707         0.059271
 H        -0.509230        -0.552909        -0.909099
 H         2.094062        -2.075681         0.869315
 H         1.947412        -1.762615        -0.968225
 H         5.152947        -1.180856         0.420452
 H         5.342214         0.597773         0.082703
 H         2.690767        -0.970570         2.673886
 H         2.926951         0.743939         3.215168
 H         2.522596         1.755535         1.007046
