19
Iteration:  4033
 C        -0.027657         0.122687        -0.023190
 C         1.410226        -0.044924         0.005375
 C         2.266437        -1.347078         0.042345
 C         3.221230        -0.115999         0.051096
 C         4.562631         0.016183         0.540159
 O         4.530771        -0.058367         2.024887
 C         3.050485        -0.019586         2.475923
 C         2.284137         0.484755         1.195629
 O         2.341857         0.481502        -0.948601
 H        -0.510004         0.080621        -1.008918
 H        -0.631064        -0.590832         0.443227
 H        -0.288310         1.145104         0.495052
 H         2.320325        -2.095930         0.882363
 H         2.163245        -1.984591        -0.811372
 H         5.210033        -0.726755         0.101851
 H         4.826006         1.073492         0.263577
 H         2.770049        -1.140635         2.862363
 H         3.108123         0.579435         3.429347
 H         2.289695         1.574751         1.223132
