19
Iteration:  4521charge 0 multiplicity 1
 C        -0.140733         0.071240        -0.059859
 C         1.375182        -0.150421         0.111111
 C         2.408464        -1.297257        -0.044270
 C         3.212990        -0.090530         0.106900
 C         4.577992         0.055288         0.493594
 O         4.466755        -0.169271         1.928981
 C         3.038015        -0.112408         2.365085
 C         2.296509         0.533797         1.268192
 O         2.395587         0.675974        -0.767139
 H        -0.392674         0.820967         0.685439
 H        -0.465552         0.350286        -1.064430
 H        -0.760278        -0.864527         0.129625
 H         2.374735        -2.007350         0.738011
 H         2.505311        -1.736758        -0.942032
 H         5.218272        -0.788725         0.050569
 H         5.174637         0.996091         0.356699
 H         2.760745        -1.162107         2.599119
 H         2.966156         0.389589         3.415199
 H         2.028928         1.619419         1.109484
