19
Iteration:  4175charge 0 multiplicity 1
 C        -0.144206         0.031904        -0.092816
 C         1.418281        -0.104160         0.079960
 C         2.348621        -1.258959         0.049400
 C         3.239933        -0.093534         0.116442
 C         4.644918         0.111663         0.611794
 O         4.462922        -0.305123         1.977152
 C         3.064370        -0.076968         2.411783
 C         2.357578         0.533362         1.185883
 O         2.263072         0.651490        -0.929030
 H        -0.603884        -0.233100         0.846681
 H        -0.316220         1.131509        -0.093747
 H        -0.499501        -0.503324        -1.075876
 H         2.402891        -1.807297         0.989822
 H         2.591825        -1.876484        -0.753559
 H         5.325005        -0.518786         0.142971
 H         4.782175         1.207478         0.610677
 H         2.525579        -1.094205         2.593619
 H         3.075213         0.636229         3.178507
 H         2.372100         1.627957         0.993578
