19
Iteration:  2178
 C        -0.083148         0.154434         0.025058
 C         1.366200        -0.149656         0.116074
 C         2.262022        -1.413661         0.010408
 C         3.233546        -0.191861         0.112294
 C         4.661853        -0.155681         0.575309
 O         4.427441         0.216259         1.977062
 C         3.054847         0.041569         2.385099
 C         2.312127         0.514121         1.179407
 O         2.392907         0.480773        -0.975298
 H        -0.727259        -0.206422         0.878673
 H        -0.122159         1.284764        -0.014075
 H        -0.583851        -0.503617        -0.788148
 H         2.369466        -2.135928         0.871268
 H         2.019897        -2.034596        -0.938223
 H         5.043621        -1.139487         0.458178
 H         5.378377         0.627844         0.167569
 H         2.889515        -0.992622         2.682400
 H         2.873510         0.560279         3.309577
 H         2.470698         1.643169         1.050349
