19
Iteration:  4074charge 0 multiplicity 1
 C        -0.101404         0.097523        -0.127057
 C         1.413557        -0.085197         0.201406
 C         2.344497        -1.284873         0.017409
 C         3.163359        -0.075540         0.063655
 C         4.621485         0.020690         0.530210
 O         4.484674        -0.186864         1.993412
 C         3.014482         0.006207         2.418772
 C         2.375402         0.587334         1.261905
 O         2.285294         0.499277        -0.922923
 H        -0.378092        -0.898671        -0.652992
 H        -0.567115        -0.006695         0.869095
 H        -0.217555         1.091679        -0.605492
 H         2.588667        -2.041308         0.718797
 H         2.213444        -1.704696        -1.002914
 H         5.327142        -0.767061         0.275605
 H         5.183550         0.906811         0.263841
 H         2.691472        -1.059598         2.679255
 H         2.936850         0.443076         3.374895
 H         2.347988         1.681680         1.111649
