19
Iteration:  2236
 C        -0.131039         0.007023        -0.001043
 C         1.433095        -0.105536         0.135699
 C         2.254260        -1.378194         0.082992
 C         3.269902        -0.040186         0.079128
 C         4.608746        -0.182452         0.571002
 O         4.476495         0.018180         2.005237
 C         2.969756         0.116362         2.391844
 C         2.379500         0.585256         1.096270
 O         2.351509         0.516876        -0.960502
 H        -0.549159         0.089915         1.004993
 H        -0.346396         0.934906        -0.686792
 H        -0.555509        -0.873333        -0.570057
 H         2.371774        -2.020061         0.959229
 H         2.132988        -1.913964        -0.846158
 H         4.982899        -1.155713         0.440810
 H         5.406086         0.581783         0.255880
 H         2.847401        -0.860091         2.825268
 H         3.086624         0.836681         3.131380
 H         2.390339         1.635302         1.050001
