19
Iteration:   713charge 0 multiplicity 1
 C        -0.101924        -0.110679        -0.059801
 C         1.406926        -0.117723         0.232754
 C         2.391938        -1.274754         0.121757
 C         3.207277         0.000647         0.080305
 C         4.547995         0.050510         0.634239
 O         4.341853        -0.445521         1.880837
 C         3.102524         0.205679         2.354851
 C         2.402744         0.705724         1.149360
 O         2.330766         0.537839        -0.958376
 H        -0.670148        -0.735051         0.705548
 H        -0.611765         0.936985        -0.118708
 H        -0.281935        -0.600593        -1.003514
 H         2.574225        -1.893986         1.033878
 H         2.367879        -1.675688        -0.920946
 H         5.196608        -0.719881         0.282295
 H         5.109598         0.969609         0.555482
 H         2.723432        -0.457411         3.133497
 H         3.404831         1.168308         2.973962
 H         2.356221         1.843665         0.986321
