19
Iteration:   293charge 0 multiplicity 1
 C        -0.120400         0.143389        -0.114902
 C         1.386949        -0.050394         0.168247
 C         2.176115        -1.374045         0.063834
 C         3.263301        -0.199713         0.067102
 C         4.658807        -0.087423         0.589762
 O         4.412714         0.294773         1.996416
 C         3.127264        -0.106516         2.359775
 C         2.410297         0.477939         1.164667
 O         2.315738         0.438832        -0.869700
 H        -0.636862        -0.624223         0.640244
 H        -0.500112         1.048526         0.062669
 H        -0.240865        -0.121293        -1.100888
 H         2.166327        -2.030460         0.962833
 H         2.063756        -1.887890        -0.940524
 H         5.242389        -0.983946         0.379318
 H         5.342869         0.671509         0.193810
 H         2.990666        -1.257997         2.271188
 H         2.952325         0.146831         3.394606
 H         2.559339         1.514433         1.084045
