19
Iteration:  2224
 C        -0.057277         0.018519         0.023723
 C         1.392041        -0.068236         0.039269
 C         2.270439        -1.327177         0.057316
 C         3.210704        -0.213032         0.056257
 C         4.753734        -0.243225         0.621458
 O         4.434232         0.093272         2.031166
 C         3.046834         0.086357         2.405298
 C         2.378552         0.607319         1.128562
 O         2.281247         0.561061        -0.984598
 H        -0.412200         0.058422         1.046743
 H        -0.627669         0.894911        -0.476115
 H        -0.454500        -1.008407        -0.316847
 H         2.062958        -1.950309         0.941895
 H         2.302106        -1.929036        -0.870081
 H         5.184521        -1.167093         0.474807
 H         5.404938         0.589113         0.123428
 H         2.568227        -0.841798         2.702280
 H         2.775760         0.737495         3.161625
 H         2.237054         1.667873         1.033808
