19
Iteration:  2410charge 0 multiplicity 1
 C        -0.112754         0.160873        -0.067569
 C         1.404035        -0.128608         0.131346
 C         2.288519        -1.428285         0.131339
 C         3.196701        -0.201795         0.124691
 C         4.592493        -0.081105         0.482975
 O         4.434909         0.122763         1.935740
 C         3.057797        -0.019994         2.404221
 C         2.309094         0.499580         1.207313
 O         2.421092         0.505196        -0.952995
 H        -0.479102         0.383522         0.940750
 H         0.098397         1.307002        -0.294577
 H        -0.660475        -0.471211        -0.810984
 H         2.162402        -2.057270         1.087907
 H         2.174498        -2.119898        -0.720114
 H         5.316802        -0.989218         0.366027
 H         5.080669         0.828415        -0.005709
 H         2.821359        -1.043335         2.928299
 H         3.025525         0.738933         3.182632
 H         2.358540         1.606174         1.178123
