19
Iteration:  4364
 C        -0.067247         0.069561        -0.089181
 C         1.474867        -0.092897         0.028910
 C         2.385951        -1.333397         0.011890
 C         3.150368        -0.040224         0.137563
 C         4.569127         0.097593         0.518748
 O         4.475172        -0.171987         1.962308
 C         3.049970        -0.257002         2.468589
 C         2.313208         0.441603         1.263235
 O         2.318213         0.753746        -0.899336
 H        -0.350077         0.989177        -0.770274
 H        -0.727743        -0.775798        -0.466004
 H        -0.376859         0.228460         0.965278
 H         2.099232        -1.970300         0.761635
 H         2.333477        -1.728905        -1.036634
 H         5.324574        -0.613581         0.208382
 H         4.879083         1.135989         0.410955
 H         2.724967        -1.308795         2.652458
 H         2.986408         0.415843         3.368099
 H         2.326954         1.536601         1.373490
