19
Iteration:  3947charge 0 multiplicity 1
 C        -0.124072         0.048041        -0.110099
 C         1.334507        -0.126611         0.221853
 C         2.238748        -1.314260         0.117528
 C         3.174387        -0.010838         0.097196
 C         4.650441        -0.109312         0.509081
 O         4.533811        -0.035215         2.049707
 C         3.046348        -0.017553         2.321026
 C         2.359078         0.512177         1.195755
 O         2.360461         0.562791        -0.966547
 H         0.045893         0.326473        -1.124864
 H        -0.665899        -0.824147         0.096506
 H        -0.570568         0.976323         0.405562
 H         2.339826        -2.077790         1.006148
 H         2.349682        -1.709538        -0.896729
 H         5.112721        -1.128779         0.302589
 H         5.124538         0.857997         0.134892
 H         2.837250        -0.967763         2.491280
 H         2.989021         0.578094         3.275236
 H         2.401291         1.589102         1.306342
