19
Iteration:  4133
 C        -0.029804         0.008620        -0.040977
 C         1.350466        -0.140015         0.190168
 C         2.384947        -1.299619         0.012225
 C         3.156678        -0.001441         0.129562
 C         4.562753         0.049013         0.533925
 O         4.419882        -0.331222         1.941513
 C         3.024304         0.069920         2.442428
 C         2.347071         0.591638         1.217364
 O         2.390843         0.598130        -0.950769
 H        -0.546380        -0.893254         0.007963
 H        -0.549151         0.761248         0.565097
 H        -0.186529         0.288714        -1.112094
 H         2.418766        -2.201714         0.660668
 H         2.402592        -1.531156        -1.033768
 H         5.210399        -0.750341         0.279656
 H         4.906079         1.081304         0.381744
 H         2.827495        -1.006609         2.688682
 H         3.221789         0.805911         3.271373
 H         2.190961         1.670758         1.177424
