19
Iteration:  3568charge 0 multiplicity 1
 C        -0.088122         0.135458        -0.101738
 C         1.428185        -0.121726         0.116009
 C         2.295307        -1.403617         0.163771
 C         3.196385        -0.191311         0.137041
 C         4.578251         0.046866         0.468769
 O         4.532974        -0.213621         1.966224
 C         3.033333         0.163959         2.432342
 C         2.353695         0.625966         1.257587
 O         2.314773         0.456336        -0.980105
 H        -0.568618         0.634590         0.726578
 H        -0.359071         0.749367        -0.968405
 H        -0.652126        -0.746503        -0.395991
 H         2.114010        -1.990082         1.061931
 H         2.429917        -2.053607        -0.720526
 H         5.295999        -0.637045         0.156841
 H         4.759467         1.050963         0.148310
 H         2.750349        -0.717444         2.993005
 H         3.141989         0.906098         3.169700
 H         2.389044         1.680912         0.918748
