19
Iteration:  4944
 C         0.015655         0.011647        -0.022434
 C         1.464534        -0.062018         0.154978
 C         2.286972        -1.338667        -0.131214
 C         3.209938         0.009739         0.047809
 C         4.582300         0.099188         0.564549
 O         4.512696        -0.189385         1.982372
 C         3.010692        -0.255081         2.422265
 C         2.319401         0.479572         1.289700
 O         2.264655         0.754684        -0.884652
 H        -0.277980         0.845181        -0.750257
 H        -0.472247        -0.897705        -0.512835
 H        -0.762293         0.129211         0.810256
 H         2.287517        -1.947046         0.781787
 H         2.349672        -1.835913        -1.054230
 H         5.322857        -0.632952         0.119194
 H         5.031849         1.196726         0.401861
 H         2.741123        -1.268476         2.665889
 H         2.920143         0.362000         3.275294
 H         2.176028         1.514205         1.346873
