19
Iteration:  1477charge 0 multiplicity 1
 C        -0.036644        -0.011058        -0.133885
 C         1.401478        -0.097630         0.226330
 C         2.299569        -1.330135         0.280815
 C         3.228502        -0.077390        -0.012010
 C         4.536221         0.065919         0.561600
 O         4.399102        -0.360060         1.907037
 C         3.072363         0.158444         2.486454
 C         2.394612         0.663882         1.175243
 O         2.327661         0.532510        -1.038723
 H        -0.562644        -0.669081         0.443188
 H        -0.405971         1.013532        -0.074236
 H        -0.208221        -0.420646        -1.154128
 H         2.440136        -1.906353         1.167755
 H         2.208553        -2.076234        -0.496067
 H         5.395708        -0.408538         0.085863
 H         4.789072         1.113076         0.472226
 H         2.665547        -0.787705         2.982097
 H         3.323076         1.014748         3.119020
 H         2.395667         1.732322         1.094546
