19
Iteration:  1347charge 0 multiplicity 1
 C        -0.075441         0.198816        -0.150707
 C         1.341519        -0.107643         0.142062
 C         2.225997        -1.496679         0.099904
 C         3.194784        -0.196421         0.059769
 C         4.643072         0.030080         0.506703
 O         4.502810         0.212775         2.051772
 C         3.118611        -0.140300         2.426769
 C         2.373905         0.438947         1.173688
 O         2.328773         0.493877        -0.887619
 H        -0.828552         0.340250         0.707738
 H        -0.139066         1.247051        -0.489757
 H        -0.529817        -0.372521        -0.988878
 H         1.992537        -2.187688         0.910918
 H         2.061477        -1.985871        -0.875333
 H         5.308021        -0.860233         0.341263
 H         5.033669         0.953483         0.125494
 H         2.967140        -1.196547         2.575204
 H         2.928838         0.355819         3.370202
 H         2.460478         1.520446         1.156394
