19
Iteration:  4370
 C        -0.046305         0.029822        -0.111524
 C         1.460363        -0.088722         0.052576
 C         2.303356        -1.282086        -0.040856
 C         3.160264        -0.017971         0.107486
 C         4.563441         0.106906         0.553836
 O         4.480651        -0.217688         2.007771
 C         3.060587        -0.234568         2.453632
 C         2.287918         0.450985         1.299621
 O         2.327279         0.727978        -0.929125
 H        -0.334825         0.948327        -0.469926
 H        -0.519262        -0.858207        -0.467596
 H        -0.287417         0.449039         0.891745
 H         2.305787        -1.977592         0.960560
 H         2.414765        -1.758475        -0.997864
 H         5.324219        -0.557217         0.086293
 H         4.727125         1.215779         0.189049
 H         2.900782        -1.288994         2.661916
 H         3.078400         0.384838         3.322767
 H         2.411726         1.542743         1.339334
