19
Iteration:  2446
 C        -0.030779         0.247745        -0.237453
 C         1.333974        -0.109370         0.138387
 C         2.237446        -1.453748         0.108770
 C         3.125513        -0.264755         0.176129
 C         4.594034         0.048300         0.524630
 O         4.573666         0.107162         2.008297
 C         3.180768        -0.050561         2.445419
 C         2.385237         0.547412         1.244477
 O         2.235969         0.344286        -0.919260
 H        -0.864680         0.370941         0.604777
 H         0.078502         1.260422        -0.783088
 H        -0.705026        -0.209190        -1.014904
 H         2.160160        -2.184337         0.868515
 H         2.109320        -1.839064        -0.909158
 H         5.365268        -0.616136         0.214362
 H         4.889917         1.158626         0.172132
 H         2.874329        -1.086284         2.688079
 H         3.127830         0.580890         3.297427
 H         2.522849         1.590570         1.193324
