19
Iteration:  3716charge 0 multiplicity 1
 C        -0.051832         0.131789        -0.108459
 C         1.322906        -0.151005         0.161009
 C         2.289503        -1.329423         0.108238
 C         3.141815        -0.114104         0.064443
 C         4.541322         0.011437         0.539749
 O         4.498537        -0.091410         1.985446
 C         3.103330         0.009315         2.452597
 C         2.413765         0.517572         1.189123
 O         2.357028         0.509842        -0.955427
 H        -0.224983         0.698792        -1.032813
 H        -0.580467        -0.767418        -0.232990
 H        -0.639158         0.607789         0.624460
 H         2.328288        -2.026061         0.964297
 H         2.051110        -1.828454        -0.907681
 H         5.340531        -0.680313         0.371322
 H         4.845704         0.962764         0.259754
 H         2.795713        -1.106122         2.653097
 H         3.187906         0.776280         3.289274
 H         2.503911         1.595842         1.204017
