19
Iteration:  2903
 C        -0.130622         0.049669        -0.102092
 C         1.379232        -0.099830         0.097291
 C         2.335549        -1.370874         0.268707
 C         3.177736        -0.057834         0.127090
 C         4.629579         0.000892         0.507157
 O         4.454041        -0.264480         1.914724
 C         3.077556         0.110953         2.367662
 C         2.343640         0.623907         1.189140
 O         2.393501         0.550545        -0.961539
 H        -0.863894         0.058949         0.758168
 H        -0.412522         0.988211        -0.478417
 H        -0.586025        -0.764312        -0.788494
 H         2.215793        -1.954603         1.248673
 H         2.395056        -1.970905        -0.651004
 H         5.292477        -0.876037         0.148694
 H         5.053509         0.947789         0.366274
 H         2.601868        -0.855185         2.941788
 H         3.155582         0.868123         3.216122
 H         2.266055         1.731783         1.075510
