19
Iteration:  3597
 C        -0.074129         0.188814        -0.080691
 C         1.397194        -0.162482         0.203714
 C         2.260827        -1.385022         0.077727
 C         3.215202        -0.160830         0.077669
 C         4.629315        -0.016838         0.529391
 O         4.449518        -0.000897         2.005683
 C         3.128669         0.075487         2.410415
 C         2.375642         0.489813         1.231812
 O         2.265938         0.436667        -0.973941
 H        -0.495036         1.084285         0.539460
 H         0.035460         0.580556        -1.089981
 H        -0.837229        -0.767892        -0.235047
 H         2.118585        -2.123868         0.845962
 H         2.289001        -1.935165        -0.898610
 H         5.305723        -0.961230         0.331660
 H         5.101528         0.961890         0.031730
 H         2.892481        -0.847725         2.924674
 H         3.017855         0.946426         3.145610
 H         2.355650         1.576379         1.053481
