19
Iteration:  3856charge 0 multiplicity 1
 C        -0.046702         0.074178        -0.045745
 C         1.466755        -0.014202         0.093924
 C         2.398862        -1.367566         0.103297
 C         3.172552        -0.066687         0.032140
 C         4.569670         0.057794         0.561381
 O         4.444016        -0.231992         1.956312
 C         2.971570        -0.056417         2.384917
 C         2.395846         0.620264         1.243080
 O         2.259933         0.516815        -0.901501
 H        -0.381080        -0.882026        -0.608107
 H        -0.379044         0.459097         0.936678
 H        -0.222593         0.792243        -0.784763
 H         2.554984        -2.017598         0.952385
 H         2.286057        -1.841138        -0.935246
 H         5.238279        -0.683672         0.131471
 H         5.017193         1.157835         0.521936
 H         2.514762        -0.947731         2.549611
 H         2.955792         0.570551         3.243510
 H         2.431976         1.699371         1.193353
