19
Iteration:  3885charge 0 multiplicity 1
 C        -0.102023         0.138342        -0.056780
 C         1.346052        -0.192253         0.174832
 C         2.311381        -1.398174         0.039387
 C         3.152892        -0.042714         0.011949
 C         4.678611         0.043972         0.584711
 O         4.481593        -0.147336         1.986199
 C         3.107983         0.010009         2.402630
 C         2.268637         0.484901         1.280177
 O         2.390839         0.566684        -0.988230
 H        -0.700680        -0.447895        -0.730865
 H        -0.766113         0.249843         0.871453
 H        -0.022345         1.142233        -0.593095
 H         2.426555        -2.141201         0.818216
 H         2.254588        -1.815295        -0.912483
 H         5.424887        -0.651489         0.183207
 H         5.160979         0.963780         0.471299
 H         2.594951        -1.029960         2.735359
 H         2.969045         0.752801         3.220516
 H         1.966470         1.571069         1.277938
