19
Iteration:  2673
 C        -0.043274         0.110929        -0.003019
 C         1.383846        -0.111960         0.066270
 C         2.235640        -1.372652         0.040787
 C         3.221489        -0.149232         0.104285
 C         4.613944        -0.127069         0.501902
 O         4.431802         0.092842         1.970537
 C         3.019384         0.002516         2.429753
 C         2.370929         0.551931         1.184434
 O         2.400791         0.501902        -0.916095
 H        -0.525985        -0.029611         0.950641
 H        -0.243227         1.180711        -0.244377
 H        -0.622518        -0.452627        -0.714312
 H         2.070459        -1.929908         1.000901
 H         2.190770        -1.981988        -0.927078
 H         5.113222        -1.186312         0.382010
 H         5.232082         0.684330         0.161319
 H         2.810013        -1.104819         2.696852
 H         3.025478         0.678491         3.273532
 H         2.432564         1.615230         1.206094
