19
Iteration:    44
 C        -0.091830         0.260776        -0.118837
 C         1.376834        -0.163249         0.044486
 C         2.275101        -1.458100        -0.037775
 C         3.156363        -0.319314         0.108534
 C         4.487700         0.058604         0.585522
 O         4.525815         0.187491         2.061985
 C         3.179121        -0.008273         2.509425
 C         2.370120         0.391949         1.211550
 O         2.313531         0.442715        -0.951910
 H        -0.671734        -0.120917         0.701860
 H        -0.073310         1.299830        -0.089723
 H        -0.431015        -0.122824        -1.022894
 H         2.285203        -1.945287         0.925355
 H         2.164148        -2.040929        -0.939233
 H         5.353893        -0.533032         0.250014
 H         4.727409         1.070393         0.122853
 H         3.064002        -1.052617         2.863348
 H         3.053683         0.634614         3.379542
 H         2.481902         1.414267         0.967654
