19
Iteration:  3417
 C        -0.160943         0.184098        -0.206868
 C         1.314388        -0.122082         0.096164
 C         2.294046        -1.399480         0.240595
 C         3.163047        -0.108534         0.126800
 C         4.641550        -0.006011         0.519353
 O         4.511736        -0.048128         1.961052
 C         3.145791         0.061076         2.478222
 C         2.359358         0.646365         1.224445
 O         2.320947         0.336306        -0.986525
 H        -0.760349        -0.681544        -0.032519
 H        -0.370510         0.966953         0.546504
 H        -0.446857         0.417830        -1.197008
 H         2.126571        -1.967540         1.194843
 H         2.339408        -2.063920        -0.693276
 H         5.289544        -0.829604         0.268779
 H         5.190744         0.916630         0.043812
 H         2.912007        -0.948341         2.669538
 H         3.223915         0.649628         3.409387
 H         2.509836         1.697445         1.005415
