19
Iteration:  2395
 C        -0.064382         0.150532         0.029047
 C         1.389031        -0.079295         0.092114
 C         2.229412        -1.383341         0.073357
 C         3.171536        -0.176060         0.098985
 C         4.595719        -0.129231         0.552684
 O         4.487691         0.098765         2.031840
 C         3.043640         0.051580         2.370665
 C         2.399816         0.554173         1.117636
 O         2.379895         0.450754        -0.954512
 H        -0.570840        -0.227439         0.872033
 H        -0.511884         0.980814        -0.322808
 H        -0.487382        -0.545138        -0.687005
 H         2.250164        -2.047080         0.926081
 H         2.330500        -1.840586        -0.926250
 H         5.089370        -1.125352         0.373642
 H         5.133710         0.711554         0.203562
 H         2.761896        -0.990858         2.504434
 H         2.886068         0.598442         3.384047
 H         2.488904         1.677325         0.974509
