19
Iteration:     3
 C        -0.052515         0.045888        -0.074647
 C         1.397079        -0.125442         0.115247
 C         2.283296        -1.358512         0.091796
 C         3.209045        -0.091410         0.098971
 C         4.618160         0.059629         0.555514
 O         4.457283        -0.084565         1.975793
 C         3.069300         0.064403         2.423579
 C         2.336837         0.550618         1.173516
 O         2.326133         0.458598        -0.928393
 H        -0.615740        -0.408065         0.689959
 H        -0.380252         1.153856        -0.180021
 H        -0.383183        -0.442249        -1.075487
 H         2.281462        -2.018655         0.963073
 H         2.238934        -1.987097        -0.830864
 H         5.221470        -0.809990         0.256119
 H         5.030508         0.992016         0.283434
 H         2.677714        -0.875829         2.780016
 H         3.094885         0.829163         3.222156
 H         2.391674         1.675426         1.079229
