19
Iteration:   574charge 0 multiplicity 1
 C         0.010999         0.124125        -0.079232
 C         1.404673        -0.183330         0.078823
 C         2.230858        -1.426613        -0.170572
 C         3.186121        -0.233154         0.067606
 C         4.492666        -0.174206         0.618836
 O         4.566803         0.287399         1.975934
 C         3.122459         0.075442         2.483761
 C         2.246630         0.394873         1.339347
 O         2.318619         0.562301        -0.857260
 H        -0.637364        -0.202714         0.852632
 H        -0.035580         1.168717        -0.070343
 H        -0.296814        -0.199796        -1.036793
 H         2.266718        -2.194029         0.607140
 H         2.187667        -1.744596        -1.221523
 H         4.972834        -1.146787         0.298806
 H         5.105034         0.539591        -0.154534
 H         3.042743        -1.038612         2.831520
 H         2.995291         0.701882         3.328290
 H         2.325328         1.443268         1.162137
