19
Iteration:   476
 C        -0.079773         0.060630        -0.030972
 C         1.390199        -0.207850         0.056083
 C         2.338135        -1.410073         0.043005
 C         3.152987        -0.039861        -0.001280
 C         4.543992         0.082708         0.591174
 O         4.463438        -0.240232         2.025448
 C         3.127415         0.151779         2.442555
 C         2.336262         0.561159         1.214669
 O         2.352628         0.511370        -0.964393
 H        -0.667675        -0.365414         0.895418
 H        -0.126595         1.133901        -0.026729
 H        -0.487248        -0.219885        -0.977433
 H         2.180993        -2.031223         0.954826
 H         2.377039        -2.025508        -0.873449
 H         5.482660        -0.438678         0.229770
 H         4.945548         1.135488         0.466644
 H         2.653923        -0.732945         2.993832
 H         3.118365         1.034880         3.092355
 H         2.181668         1.615932         1.034767
