19
Iteration:  4962charge 0 multiplicity 1
 C        -0.146330         0.054191        -0.053552
 C         1.387495        -0.122249         0.100452
 C         2.445325        -1.254238        -0.009355
 C         3.222308         0.012309         0.083220
 C         4.641020         0.156744         0.530402
 O         4.402915        -0.273055         1.942831
 C         3.029850        -0.179460         2.383295
 C         2.323842         0.414173         1.237011
 O         2.318297         0.698803        -0.835026
 H        -0.612083         0.961707        -0.577170
 H        -0.647565        -0.843183        -0.469637
 H        -0.498820         0.317297         0.946746
 H         2.642695        -2.014385         0.737350
 H         2.427662        -1.589398        -1.089912
 H         5.385842        -0.488540         0.011112
 H         5.012147         1.129555         0.527614
 H         2.749204        -1.228843         2.660303
 H         3.086123         0.290504         3.394309
 H         2.495518         1.512094         1.428643
