19
Iteration:  2789
 C        -0.109598         0.072436        -0.208425
 C         1.332440        -0.073488         0.111140
 C         2.265723        -1.358910         0.235775
 C         3.150972        -0.116172         0.110146
 C         4.649594        -0.070733         0.539441
 O         4.564054        -0.109727         1.993413
 C         3.162420         0.057393         2.413053
 C         2.377603         0.599719         1.189528
 O         2.212187         0.528619        -0.938819
 H        -0.646302        -0.773901         0.140791
 H        -0.468869         1.053856         0.275267
 H         0.036767         0.049166        -1.252693
 H         2.353995        -1.816437         1.142288
 H         2.309765        -1.993075        -0.639848
 H         5.158361        -0.947541         0.240428
 H         5.153909         0.891305         0.219368
 H         2.717508        -1.061067         2.679676
 H         3.007553         0.723875         3.288911
 H         2.430582         1.686559         0.899593
