19
Iteration:  1087
 C        -0.062175         0.231647        -0.018443
 C         1.418822        -0.095029         0.006712
 C         2.211519        -1.473552        -0.091812
 C         3.229801        -0.270502         0.115664
 C         4.707287        -0.059320         0.641522
 O         4.471163         0.218421         2.038099
 C         3.128899        -0.074234         2.508008
 C         2.319215         0.470034         1.172878
 O         2.229977         0.484787        -0.999944
 H        -0.689057        -0.649184         0.624870
 H        -0.256008         1.087963         0.525874
 H        -0.662572         0.376424        -1.008188
 H         2.156340        -1.966994         0.830238
 H         2.281942        -1.763054        -1.113488
 H         5.275679        -1.002754         0.717939
 H         5.229232         0.705229         0.045516
 H         3.077690        -1.105848         3.001091
 H         2.875431         0.664414         3.298614
 H         2.476536         1.495926         1.001095
