19
Iteration:  1882charge 0 multiplicity 1
 C        -0.046226         0.180316         0.021417
 C         1.403115        -0.146115         0.223426
 C         2.302310        -1.386264        -0.005127
 C         3.190878        -0.137275         0.054332
 C         4.628907        -0.165017         0.667980
 O         4.450235         0.238137         1.998395
 C         3.046403        -0.052364         2.338236
 C         2.401596         0.540505         1.131424
 O         2.256278         0.412602        -1.010714
 H        -0.819971        -0.642938         0.245611
 H        -0.282785         1.058645         0.542839
 H        -0.092275         0.519207        -0.982486
 H         2.173647        -2.152279         0.749162
 H         2.127439        -1.868708        -0.958307
 H         5.150822        -1.055807         0.848983
 H         5.229793         0.552846         0.059112
 H         3.124541        -1.182566         2.633376
 H         2.901265         0.522054         3.339950
 H         2.481860         1.676408         1.088758
