19
Iteration:   993charge 0 multiplicity 1
 C        -0.070875        -0.042519        -0.155681
 C         1.363343        -0.069815         0.135933
 C         2.303737        -1.300625         0.012941
 C         3.228535        -0.110447         0.097560
 C         4.603561         0.016982         0.534195
 O         4.445974        -0.260001         1.958797
 C         3.090868         0.126324         2.439879
 C         2.399748         0.632391         1.221845
 O         2.283938         0.545798        -0.855096
 H        -0.601405        -0.085271         0.741727
 H        -0.405540         0.988861        -0.639597
 H        -0.445178        -0.864396        -0.802242
 H         2.376082        -1.996493         0.964855
 H         2.128824        -1.850397        -0.957705
 H         5.285395        -0.817643         0.222359
 H         5.092636         1.014539         0.301359
 H         2.747786        -0.834218         3.098205
 H         3.209904         0.899505         3.216406
 H         2.330533         1.778291         1.308024
