19
Iteration:  1007charge 0 multiplicity 1
 C        -0.195950        -0.014262        -0.185267
 C         1.390123        -0.092615         0.163406
 C         2.220191        -1.374826         0.073518
 C         3.137960        -0.093787         0.057800
 C         4.631151        -0.031950         0.600936
 O         4.580603        -0.164189         2.024050
 C         3.159324         0.068454         2.471904
 C         2.372382         0.597997         1.246497
 O         2.312982         0.618245        -0.968317
 H        -0.860164        -0.288737         0.662700
 H        -0.437360         1.065550        -0.652251
 H        -0.306271        -0.728399        -0.978933
 H         2.149274        -2.087926         0.839754
 H         2.326249        -1.895872        -0.878343
 H         5.372858        -0.731657         0.145280
 H         4.982029         0.995003         0.356395
 H         2.670016        -0.912826         2.719099
 H         3.216625         0.779744         3.332017
 H         2.435477         1.670194         0.975541
