19
Iteration:  2088charge 0 multiplicity 1
 C        -0.083975         0.026286        -0.106904
 C         1.424121        -0.121018         0.115224
 C         2.286932        -1.318576         0.193373
 C         3.123960        -0.087867         0.095546
 C         4.635904        -0.058407         0.492540
 O         4.422106        -0.136789         1.936047
 C         3.068776         0.120178         2.414113
 C         2.362492         0.603596         1.252808
 O         2.356127         0.496738        -0.991746
 H        -0.508218        -0.899627         0.518624
 H        -0.484784         0.959407         0.177850
 H        -0.224396        -0.133072        -1.192393
 H         2.384654        -1.798692         1.212473
 H         2.216869        -1.983690        -0.698083
 H         5.279909        -0.900163         0.196197
 H         5.176111         0.932108         0.387676
 H         2.942185        -0.749735         2.955668
 H         3.088557         0.917752         3.187492
 H         2.281164         1.761241         1.212033
