19
Iteration:   926
 C         0.011855        -0.028822         0.078776
 C         1.489336        -0.022536         0.076994
 C         2.320823        -1.365687         0.058865
 C         3.241588        -0.057812         0.056832
 C         4.641567         0.109708         0.639032
 O         4.371193        -0.348660         1.922404
 C         2.970236         0.091441         2.372852
 C         2.388251         0.690827         1.163941
 O         2.278403         0.488506        -0.993875
 H        -0.301186        -0.541232         1.016362
 H        -0.377110         1.008145         0.118362
 H        -0.428821        -0.556896        -0.837696
 H         2.435670        -1.903963         1.066224
 H         2.032556        -1.874692        -0.860626
 H         5.391643        -0.533385         0.194350
 H         4.865965         1.217692         0.606333
 H         2.322552        -0.771608         2.847264
 H         3.154647         0.785793         3.198774
 H         2.173281         1.755547         0.970661
