19
Iteration:   378charge 0 multiplicity 1
 C        -0.088780        -0.057689        -0.094287
 C         1.402349        -0.067220         0.144360
 C         2.229042        -1.344829         0.146304
 C         3.169924        -0.087290         0.103705
 C         4.594559         0.015890         0.602294
 O         4.475982        -0.131017         1.997985
 C         3.113041         0.047388         2.366770
 C         2.415401         0.628740         1.169818
 O         2.324460         0.562294        -1.002099
 H        -0.664195        -0.551982         0.812887
 H        -0.423481         0.986201        -0.273048
 H        -0.397561        -0.589861        -0.992611
 H         2.097376        -2.069494         1.017511
 H         2.373645        -2.048993        -0.727999
 H         5.225252        -0.876967         0.204996
 H         4.988376         0.997449         0.365292
 H         2.745453        -0.951507         2.737790
 H         3.200794         0.691686         3.190303
 H         2.447426         1.734755         1.014941
