19
Iteration:  2062charge 0 multiplicity 1
 C        -0.123753        -0.042318         0.046643
 C         1.409239        -0.171683         0.112490
 C         2.389008        -1.306540         0.062436
 C         3.168687        -0.051000         0.061339
 C         4.662587        -0.088567         0.634707
 O         4.460731        -0.271666         2.017746
 C         2.976078         0.242096         2.387278
 C         2.386693         0.730670         1.094377
 O         2.269762         0.524010        -1.025838
 H        -0.496771        -0.461681         0.915378
 H        -0.286833         1.077907         0.090801
 H        -0.499721        -0.627788        -0.803660
 H         2.423808        -2.043213         0.847908
 H         2.528580        -1.649318        -0.959025
 H         5.243888        -0.977951         0.197294
 H         5.272716         0.741742         0.544533
 H         2.727526        -0.715035         2.896932
 H         3.082427         0.925623         3.244332
 H         2.314520         1.774175         0.911707
