19
Iteration:    19charge 0 multiplicity 1
 C        -0.057268         0.160978        -0.093002
 C         1.404267        -0.181133         0.139620
 C         2.102587        -1.512414        -0.062395
 C         3.199852        -0.167322         0.157190
 C         4.657018         0.174597         0.539340
 O         4.504296         0.034524         1.974225
 C         3.048251         0.099493         2.441975
 C         2.324401         0.417402         1.217075
 O         2.419383         0.424256        -0.878034
 H        -0.688927        -0.276068         0.787348
 H        -0.148799         1.214744        -0.098778
 H        -0.322515        -0.333136        -0.998128
 H         1.933396        -2.203790         0.795784
 H         2.009337        -1.858588        -1.082675
 H         5.375088        -0.582594         0.135864
 H         5.181177         1.147566         0.181754
 H         2.900587        -0.865910         2.997837
 H         2.994042         0.870030         3.218527
 H         2.267506         1.481095         1.001959
