19
Iteration:  1249
 C        -0.047768        -0.024762         0.031602
 C         1.431701        -0.102196         0.210091
 C         2.335772        -1.300438         0.131231
 C         3.261903        -0.060799        -0.014293
 C         4.639348         0.001018         0.585704
 O         4.384863        -0.262802         2.023442
 C         3.045017         0.075365         2.386829
 C         2.373891         0.751867         1.117353
 O         2.253854         0.481124        -1.052818
 H        -0.705023        -0.666845         0.625716
 H        -0.364943         0.943234         0.241549
 H        -0.260113        -0.133311        -1.046713
 H         2.382469        -1.869668         1.034998
 H         2.264138        -1.853757        -0.803472
 H         5.382962        -0.792757         0.310872
 H         5.142525         0.952287         0.508753
 H         2.558180        -0.822729         2.623811
 H         2.936998         0.709245         3.253361
 H         2.388203         1.792322         0.888344
