19
Iteration:   279
 C        -0.107300         0.012634        -0.101853
 C         1.363422        -0.083359         0.152145
 C         2.205479        -1.383252         0.049937
 C         3.149047        -0.205336         0.100890
 C         4.633270        -0.147107         0.597611
 O         4.558132         0.242412         2.050342
 C         3.090391        -0.074696         2.338806
 C         2.403968         0.594775         1.208520
 O         2.337771         0.568459        -0.960390
 H        -0.697012        -0.509590         0.653838
 H        -0.412108         1.123882        -0.031110
 H        -0.483208        -0.445204        -1.050322
 H         2.152806        -2.283664         0.827815
 H         2.113996        -1.795206        -0.986330
 H         5.053222        -1.214954         0.750413
 H         5.166650         0.595847         0.019180
 H         3.016431        -1.218939         2.340668
 H         2.875111         0.331282         3.330778
 H         2.450842         1.733021         1.109091
