19
Iteration:    91charge 0 multiplicity 1
 C        -0.100696         0.037675        -0.095601
 C         1.395813        -0.102114         0.213942
 C         2.283438        -1.372109         0.069205
 C         3.118367        -0.093955         0.069159
 C         4.511165        -0.097698         0.525189
 O         4.465340         0.173346         1.996946
 C         3.096736        -0.062175         2.405318
 C         2.372818         0.541276         1.272096
 O         2.428038         0.526038        -0.995149
 H        -0.572021        -0.506143         0.633176
 H        -0.454916         1.142827        -0.171582
 H        -0.164081        -0.589149        -1.068423
 H         2.337465        -2.020204         0.950155
 H         2.425283        -1.824754        -0.966484
 H         4.784612        -1.198169         0.517802
 H         5.271844         0.496462         0.044274
 H         2.890834        -1.126928         2.426593
 H         2.977247         0.399777         3.436802
 H         2.503113         1.677035         1.211489
