19
Iteration:  3283charge 0 multiplicity 1
 C        -0.051258         0.126199        -0.087731
 C         1.390182        -0.119813         0.089551
 C         2.196989        -1.416375         0.099969
 C         3.150051        -0.171892         0.135085
 C         4.547008         0.039034         0.551071
 O         4.543927        -0.044962         2.027953
 C         3.079321         0.079304         2.393977
 C         2.369231         0.549617         1.201733
 O         2.354723         0.440269        -0.976321
 H        -0.451812         0.165832         0.938336
 H        -0.160435         1.101236        -0.338286
 H        -0.650462        -0.553313        -0.740067
 H         2.174506        -2.136139         1.014950
 H         2.313460        -1.818097        -0.934350
 H         5.175614        -0.696645         0.073364
 H         4.904847         1.027454         0.033028
 H         2.776700        -0.960794         2.729313
 H         3.311824         0.663714         3.312494
 H         2.475160         1.681884         1.035495
