19
Iteration:  1344
 C        -0.046397         0.200927        -0.162877
 C         1.348430        -0.114123         0.151153
 C         2.233823        -1.525204         0.087953
 C         3.182468        -0.205482         0.083770
 C         4.638658         0.014667         0.538687
 O         4.494302         0.202620         2.022115
 C         3.099976        -0.122445         2.431827
 C         2.383365         0.469342         1.148328
 O         2.287098         0.508474        -0.861260
 H        -0.666390         0.261006         0.659759
 H        -0.181843         1.314374        -0.565755
 H        -0.502690        -0.363019        -0.995008
 H         2.054347        -2.180214         0.932321
 H         2.180556        -1.928573        -0.936709
 H         5.315470        -0.787953         0.326367
 H         4.986066         0.925733         0.008450
 H         3.010935        -1.320897         2.626358
 H         3.005865         0.375892         3.423541
 H         2.635965         1.555981         1.160162
