19
Iteration:   100charge 0 multiplicity 1
 C        -0.126150        -0.021675        -0.106253
 C         1.392609        -0.065788         0.132525
 C         2.259367        -1.341947         0.053436
 C         3.158942        -0.086027         0.070732
 C         4.560974        -0.164113         0.536498
 O         4.485438         0.152432         2.007759
 C         3.104304        -0.053327         2.502747
 C         2.397361         0.550892         1.214134
 O         2.391056         0.559229        -0.978285
 H        -0.505603        -0.516697         0.666171
 H        -0.658520         0.935965        -0.187943
 H        -0.433379        -0.546470        -1.036406
 H         2.274694        -2.116720         0.783783
 H         2.256576        -1.802935        -0.972023
 H         4.928595        -1.175175         0.427710
 H         5.184859         0.599811         0.140719
 H         2.896602        -1.060655         2.845894
 H         3.042905         0.681033         3.342067
 H         2.449283         1.649599         1.225721
