19
Iteration:  2258
 C        -0.076720         0.099549        -0.128683
 C         1.360349        -0.181415         0.259423
 C         2.306704        -1.354012         0.153921
 C         3.185063        -0.108216         0.122898
 C         4.558778        -0.069017         0.478244
 O         4.463489        -0.115797         1.983758
 C         3.099108         0.133929         2.448084
 C         2.304642         0.674344         1.191257
 O         2.379932         0.444898        -1.057702
 H        -0.586285        -0.098659         0.811180
 H        -0.160570         1.117841        -0.703201
 H        -0.347493        -0.702973        -0.854736
 H         2.336529        -1.989798         1.052081
 H         2.348650        -1.908142        -0.764647
 H         5.219787        -0.834938         0.309916
 H         5.004907         0.978277         0.324621
 H         2.900181        -0.845167         2.858442
 H         3.232438         0.800430         3.240651
 H         2.125876         1.709272         1.157266
