19
Iteration:  3152charge 0 multiplicity 1
 C        -0.111000         0.155839         0.047126
 C         1.345464        -0.148992         0.179724
 C         2.368636        -1.364816         0.089860
 C         3.221426        -0.133363         0.026815
 C         4.666787         0.025761         0.507633
 O         4.363166        -0.204734         2.045322
 C         3.029530         0.141057         2.409612
 C         2.462962         0.567676         1.146877
 O         2.308532         0.476688        -1.046297
 H        -0.683289        -0.307468         0.904467
 H        -0.301705         1.171014        -0.148498
 H        -0.608816        -0.355665        -0.852860
 H         2.584248        -2.134428         0.793300
 H         2.325637        -1.910411        -0.816312
 H         5.280210        -0.748548         0.280455
 H         5.053169         1.014178         0.330162
 H         2.723652        -0.816101         2.958965
 H         3.022000         0.940157         3.183315
 H         2.474782         1.708560         1.040410
