19
Iteration:  3426
 C        -0.120362         0.184980        -0.151802
 C         1.365711        -0.119580         0.115477
 C         2.248283        -1.441261         0.271531
 C         3.191088        -0.136356         0.123929
 C         4.567905        -0.010056         0.561002
 O         4.542317        -0.057600         1.968861
 C         3.153446         0.066476         2.416543
 C         2.340431         0.631323         1.142873
 O         2.336497         0.392816        -1.002527
 H        -0.701353        -0.696372         0.025307
 H        -0.536150         0.910271         0.450972
 H        -0.232600         0.520178        -1.190488
 H         2.628481        -1.993304         1.134772
 H         2.098289        -2.153774        -0.624821
 H         5.169774        -0.813903         0.177253
 H         4.956004         1.020149         0.201398
 H         2.681792        -0.962746         2.763590
 H         3.074888         0.775641         3.257206
 H         2.270854         1.756929         1.140298
