19
Iteration:  2147charge 0 multiplicity 1
 C        -0.030344         0.219793        -0.173830
 C         1.365401        -0.156582         0.080414
 C         2.220403        -1.434613         0.130003
 C         3.170613        -0.216892         0.150416
 C         4.608288         0.008009         0.463855
 O         4.515767         0.134209         1.999158
 C         3.173385         0.027105         2.476285
 C         2.306031         0.479434         1.266625
 O         2.299417         0.395000        -0.937974
 H        -0.721212        -0.471638         0.325598
 H        -0.314710         1.299325         0.159359
 H        -0.188735         0.114540        -1.340056
 H         2.278547        -1.959210         1.082938
 H         2.049448        -2.111100        -0.723365
 H         5.146549        -0.841122         0.036512
 H         5.093636         1.003009         0.068026
 H         2.968068        -1.052173         2.793045
 H         2.884776         0.712081         3.244730
 H         2.421976         1.560373         1.205310
