19
Iteration:   397
 C        -0.117951        -0.121400        -0.029053
 C         1.399241        -0.012738         0.091096
 C         2.316254        -1.200961         0.150757
 C         3.258647        -0.004017         0.112359
 C         4.696734        -0.046610         0.431752
 O         4.444856        -0.253566         1.946160
 C         2.943004         0.064549         2.407146
 C         2.293556         0.736370         1.233908
 O         2.408822         0.481770        -0.935836
 H        -0.405415        -0.529689         0.879075
 H        -0.776424         0.799774        -0.396990
 H        -0.353050        -0.987722        -0.736440
 H         2.457738        -1.866423         0.995592
 H         2.310474        -1.905757        -0.656648
 H         5.077845        -1.024036         0.155215
 H         5.162756         0.921905         0.284446
 H         2.564323        -0.861703         2.762260
 H         3.058932         0.793681         3.267327
 H         2.199597         1.865776         1.055594
