19
Iteration:  1867
 C        -0.040354         0.186409         0.027402
 C         1.413887        -0.149342         0.060640
 C         2.210813        -1.419353         0.045312
 C         3.208750        -0.191467         0.074678
 C         4.641943        -0.096643         0.583415
 O         4.478381         0.197748         2.042762
 C         3.096200         0.008421         2.429340
 C         2.333446         0.494788         1.159418
 O         2.293078         0.439807        -1.011392
 H        -0.542288        -0.670593         0.388720
 H        -0.182286         1.115237         0.716264
 H        -0.418704         0.432877        -1.013974
 H         2.400231        -2.059956         0.944029
 H         2.274608        -1.893005        -0.962721
 H         4.931906        -1.081629         0.315617
 H         5.329382         0.684320         0.303414
 H         2.707942        -0.977284         2.416687
 H         2.904985         0.507884         3.357754
 H         2.300010         1.589873         1.021190
