19
Iteration:  1077charge 0 multiplicity 1
 C        -0.092482         0.274524         0.006140
 C         1.369164        -0.156678         0.068823
 C         2.233081        -1.450559        -0.042319
 C         3.190558        -0.190776         0.110060
 C         4.728232        -0.055752         0.646470
 O         4.455151         0.222630         2.019450
 C         3.084344        -0.041637         2.489708
 C         2.365380         0.386574         1.168056
 O         2.280890         0.482597        -1.032780
 H        -0.748484        -0.573704         0.451554
 H        -0.212000         1.191260         0.482894
 H        -0.282268         0.354582        -1.105963
 H         2.265786        -2.272055         0.678255
 H         2.161973        -2.050161        -0.934667
 H         5.207383        -0.983397         0.357516
 H         5.313727         0.780655         0.221174
 H         3.027434        -1.079480         2.701768
 H         3.023402         0.542782         3.399615
 H         2.349088         1.462857         1.149193
