19
Iteration:  4179
 C        -0.129542         0.027741        -0.086178
 C         1.422936        -0.099697         0.073800
 C         2.340621        -1.274915         0.022807
 C         3.253341        -0.076732         0.116172
 C         4.603857         0.114181         0.605595
 O         4.463543        -0.292285         1.992468
 C         3.059578        -0.096110         2.374578
 C         2.346606         0.564031         1.232037
 O         2.285716         0.634509        -0.921595
 H        -0.694129        -0.232839         0.824479
 H        -0.335616         1.117318        -0.263510
 H        -0.534622        -0.513864        -0.862310
 H         2.327397        -1.860088         0.954330
 H         2.443751        -1.959495        -0.909588
 H         5.395717        -0.522991         0.110142
 H         4.797243         1.169342         0.707517
 H         2.657826        -1.068969         2.626072
 H         3.212778         0.702749         3.206278
 H         2.398024         1.623550         0.959807
