19
Iteration:  1476
 C        -0.028346        -0.012567        -0.131442
 C         1.397459        -0.109273         0.227467
 C         2.291918        -1.320120         0.283591
 C         3.231667        -0.075348        -0.018036
 C         4.542473         0.057998         0.550305
 O         4.388302        -0.351996         1.910879
 C         3.068850         0.157522         2.487522
 C         2.394451         0.655298         1.172443
 O         2.338008         0.536922        -1.030893
 H        -0.556320        -0.674000         0.416112
 H        -0.458460         1.039001        -0.033633
 H        -0.214206        -0.452019        -1.154527
 H         2.415621        -1.905039         1.157113
 H         2.207165        -2.072695        -0.486010
 H         5.375030        -0.400270         0.051548
 H         4.810745         1.132047         0.482508
 H         2.686419        -0.754794         2.983304
 H         3.363153         0.987629         3.108009
 H         2.390705         1.727947         1.081896
