19
Iteration:  4498
 C        -0.072763         0.014859        -0.029943
 C         1.371794        -0.057374         0.168177
 C         2.314874        -1.302989        -0.043210
 C         3.185243         0.005340         0.044815
 C         4.620943         0.113950         0.612084
 O         4.485230        -0.271882         1.986234
 C         3.066802        -0.153699         2.457796
 C         2.376235         0.545345         1.272191
 O         2.285929         0.651282        -1.025191
 H        -0.603592         0.714460         0.673069
 H        -0.265445         0.322238        -1.071288
 H        -0.525329        -0.993180        -0.001888
 H         2.250061        -2.074677         0.649189
 H         2.462697        -1.659717        -1.002338
 H         5.260075        -0.684069         0.108753
 H         5.196882         1.104506         0.504751
 H         2.816774        -1.109093         2.926398
 H         3.098865         0.585001         3.299981
 H         2.038108         1.576534         1.304742
