19
Iteration:   708
 C        -0.106849        -0.108266        -0.061516
 C         1.436198        -0.087403         0.215174
 C         2.432212        -1.296382         0.110007
 C         3.189840         0.007310         0.086366
 C         4.548625         0.058180         0.590130
 O         4.316001        -0.459182         1.904075
 C         3.120827         0.249620         2.416257
 C         2.383205         0.708611         1.170709
 O         2.305872         0.521666        -0.966054
 H        -0.638211        -0.742799         0.652382
 H        -0.413643         0.919337        -0.172723
 H        -0.253145        -0.540004        -1.096477
 H         2.571631        -2.098393         0.852219
 H         2.195215        -1.776555        -0.839094
 H         5.253510        -0.736651         0.145125
 H         5.153483         1.002846         0.492100
 H         2.771736        -0.496238         3.149316
 H         3.415316         1.127566         2.895056
 H         2.363550         1.789302         1.140106
