19
Iteration:  1889charge 0 multiplicity 1
 C        -0.113840         0.185707         0.002534
 C         1.402799        -0.125979         0.232780
 C         2.302229        -1.424456         0.020298
 C         3.201166        -0.183827         0.055066
 C         4.681646        -0.201153         0.589131
 O         4.438945         0.295477         2.001193
 C         3.080499        -0.076427         2.383441
 C         2.401201         0.530318         1.161579
 O         2.274565         0.445467        -0.988065
 H        -0.625979        -0.709079         0.170131
 H        -0.382819         1.191486         0.547144
 H        -0.152454         0.514653        -1.092627
 H         2.307173        -2.178669         0.870905
 H         2.160231        -1.765714        -1.042662
 H         5.131525        -1.253266         0.643545
 H         5.319493         0.598607         0.226433
 H         2.767833        -1.089774         2.453305
 H         2.622907         0.590228         3.075329
 H         2.393164         1.640865         1.154963
