19
Iteration:  2006
 C        -0.127693         0.035023         0.072782
 C         1.372588        -0.096295         0.161895
 C         2.381537        -1.335858         0.150896
 C         3.234029        -0.068535         0.065037
 C         4.630062         0.148697         0.505218
 O         4.353116        -0.337213         1.984235
 C         3.053775         0.105050         2.362536
 C         2.305794         0.701151         1.116150
 O         2.452764         0.438657        -1.010029
 H        -0.524178         0.110692         1.033033
 H        -0.582901         0.876625        -0.578702
 H        -0.639368        -0.889370        -0.347072
 H         2.324079        -2.043225         0.966798
 H         2.458902        -1.837143        -0.819942
 H         5.260228        -0.665225         0.078739
 H         5.055200         1.102470         0.621197
 H         2.635847        -0.920364         2.725788
 H         3.205432         0.879072         3.143770
 H         2.140054         1.722126         0.923588
