19
Iteration:  1307
 C        -0.147120         0.123826        -0.176529
 C         1.328808        -0.209763         0.153100
 C         2.201706        -1.401993         0.043751
 C         3.135290        -0.021857         0.086551
 C         4.633735        -0.070226         0.538493
 O         4.573912         0.031859         1.991248
 C         3.106238         0.015601         2.511722
 C         2.310262         0.515369         1.221958
 O         2.396981         0.544769        -0.955226
 H        -0.610678        -0.458044         0.726355
 H        -0.261544         1.162616        -0.166744
 H        -0.467797        -0.496199        -0.989487
 H         2.240072        -2.218364         0.811038
 H         2.368580        -1.951758        -0.887095
 H         5.022959        -1.098666         0.328687
 H         5.329673         0.749427         0.192160
 H         3.068339        -0.993425         3.077531
 H         3.082202         0.876377         3.213060
 H         2.292664         1.635053         1.121446
