19
Iteration:  1827charge 0 multiplicity 1
 C        -0.047556         0.064827        -0.115671
 C         1.385828        -0.093526         0.190908
 C         2.187055        -1.460414         0.053599
 C         3.136332        -0.122304         0.074486
 C         4.573880         0.020089         0.480621
 O         4.499407        -0.083913         2.037059
 C         3.120397         0.114870         2.418102
 C         2.375296         0.587947         1.211666
 O         2.398974         0.481017        -0.945043
 H        -0.643204        -0.364555         0.741161
 H        -0.346033         1.074891        -0.090432
 H        -0.342608        -0.475856        -0.990684
 H         2.086067        -2.115395         0.910320
 H         1.903619        -1.905133        -0.903984
 H         5.397993        -0.706627         0.337966
 H         4.974646         1.034549         0.169483
 H         2.821851        -0.916966         2.798926
 H         3.034396         0.810952         3.313434
 H         2.394627         1.707891         1.030487
