19
Iteration:  3994charge 0 multiplicity 1
 C        -0.112727         0.079531        -0.095058
 C         1.411099        -0.134370         0.185432
 C         2.210494        -1.389114        -0.004649
 C         3.199632        -0.190177         0.053329
 C         4.646816        -0.032197         0.536448
 O         4.527262        -0.009311         2.044930
 C         3.060621        -0.006485         2.428697
 C         2.383128         0.530812         1.154362
 O         2.341636         0.587415        -0.906090
 H        -0.175081         0.622614        -1.038597
 H        -0.676939        -0.890638         0.139747
 H        -0.468788         0.809344         0.624806
 H         2.125488        -1.984104         0.923746
 H         1.960514        -1.822511        -0.990725
 H         5.283775        -0.941199         0.259665
 H         4.992457         0.972371         0.323078
 H         2.681935        -0.952166         2.788372
 H         2.975388         0.839414         3.159502
 H         2.242315         1.638163         1.040983
