19
Iteration:  1091
 C        -0.064678         0.184941        -0.026891
 C         1.413594        -0.075143        -0.016005
 C         2.213803        -1.445365        -0.099685
 C         3.251641        -0.294055         0.103322
 C         4.658075        -0.095215         0.625377
 O         4.493188         0.227258         2.056111
 C         3.139319        -0.068199         2.491896
 C         2.319960         0.469262         1.182862
 O         2.229398         0.487648        -0.972336
 H        -0.540487        -0.493407         0.546507
 H        -0.270598         1.129209         0.602475
 H        -0.674487         0.309010        -0.894371
 H         2.063922        -1.996689         0.922456
 H         2.307992        -1.731805        -1.188470
 H         5.291996        -0.967150         0.808429
 H         5.158411         0.745110         0.112671
 H         2.966462        -1.002192         2.913345
 H         2.857746         0.686439         3.197563
 H         2.521872         1.607282         1.056480
