19
Iteration:    34
 C        -0.054665         0.213130        -0.112445
 C         1.356023        -0.190921         0.079828
 C         2.179366        -1.501599         0.002358
 C         3.183825        -0.305302         0.059945
 C         4.541246         0.057952         0.572944
 O         4.547047         0.144541         2.047742
 C         3.166202         0.041389         2.512905
 C         2.330038         0.417247         1.223285
 O         2.369749         0.486971        -0.961167
 H        -0.606752        -0.131985         0.700230
 H        -0.110046         1.307159        -0.095582
 H        -0.553399        -0.117516        -1.024872
 H         2.127380        -2.358804         0.661155
 H         2.264903        -1.863340        -1.031380
 H         5.509821        -0.372989         0.338041
 H         4.416060         1.105446         0.171168
 H         2.919822        -0.928430         2.922491
 H         3.039088         0.805325         3.295430
 H         2.330068         1.501327         1.167160
