19
Iteration:  2016charge 0 multiplicity 1
 C        -0.145957        -0.022179         0.124109
 C         1.460955        -0.117778         0.142315
 C         2.316156        -1.364987         0.079684
 C         3.228164        -0.061352         0.037379
 C         4.619327         0.094064         0.605813
 O         4.380658        -0.353425         1.997474
 C         3.011290         0.177132         2.342819
 C         2.347345         0.670699         1.071951
 O         2.415061         0.507834        -1.039670
 H        -0.387264         0.150426         1.123206
 H        -0.298672         0.926856        -0.418129
 H        -0.476781        -0.995390        -0.268449
 H         2.443940        -1.817460         1.037122
 H         2.203202        -2.019533        -0.783542
 H         5.407832        -0.431999         0.096889
 H         4.941880         1.124018         0.533010
 H         2.292945        -0.615824         2.843331
 H         3.193644         0.797261         3.225040
 H         2.326519         1.730627         0.981861
