19
Iteration:  4759
 C        -0.096975        -0.022210        -0.064407
 C         1.437732         0.015916         0.073933
 C         2.371304        -1.278256        -0.013172
 C         3.160064         0.015361         0.162844
 C         4.628761         0.137989         0.519813
 O         4.423223        -0.326294         1.892432
 C         3.097197        -0.108382         2.490462
 C         2.338763         0.508526         1.219788
 O         2.297752         0.630243        -0.867730
 H        -0.526043         0.716135         0.544541
 H        -0.461619         0.008739        -1.102719
 H        -0.299371        -1.069719         0.199018
 H         2.207985        -2.064054         0.847051
 H         2.395545        -1.563879        -1.085469
 H         5.232938        -0.536559         0.039588
 H         5.107454         1.087799         0.580412
 H         2.427641        -1.005914         2.903226
 H         3.270145         0.567577         3.308352
 H         2.292584         1.606093         1.250909
