19
Iteration:  2468
 C        -0.112142         0.179806        -0.192637
 C         1.383992        -0.062203         0.148520
 C         2.119155        -1.473768         0.164938
 C         3.194272        -0.156452         0.132068
 C         4.610819         0.033618         0.487785
 O         4.554029         0.042381         2.002842
 C         3.139564         0.002903         2.420087
 C         2.396635         0.477838         1.191458
 O         2.359198         0.444908        -0.922832
 H        -0.864999        -0.124081         0.631340
 H        -0.359822         1.200003        -0.562447
 H        -0.421747        -0.436258        -1.064015
 H         1.904650        -1.956603         1.080596
 H         2.084284        -2.127898        -0.718706
 H         5.290913        -0.752389         0.380668
 H         5.066122         1.028389         0.091835
 H         2.891479        -1.026603         2.716325
 H         3.073143         0.684640         3.267952
 H         2.368978         1.530761         1.224846
