19
Iteration:   889charge 0 multiplicity 1
 C        -0.207637         0.044367        -0.073414
 C         1.386018        -0.118284         0.110972
 C         2.306430        -1.345497         0.009871
 C         3.220036        -0.050513         0.079684
 C         4.683359        -0.085880         0.580795
 O         4.516281        -0.023074         1.960705
 C         3.048983         0.037664         2.450769
 C         2.275917         0.532658         1.222633
 O         2.368896         0.554150        -0.932185
 H        -0.667840        -0.746573         0.610380
 H        -0.531933         1.000179         0.272379
 H        -0.520722        -0.193962        -1.046118
 H         2.609039        -2.013701         0.825898
 H         2.129303        -1.939331        -0.936970
 H         5.121234        -1.084776         0.255524
 H         5.242010         0.815630         0.268111
 H         2.824318        -0.939658         2.701616
 H         3.131114         0.664713         3.376530
 H         2.370409         1.610197         1.191713
