19
Iteration:  3077
 C        -0.082368         0.085165        -0.189602
 C         1.356942        -0.104009         0.197225
 C         2.226587        -1.428800         0.137750
 C         3.152621        -0.104093         0.130833
 C         4.660693        -0.095468         0.510464
 O         4.517832        -0.033922         1.992045
 C         3.146386         0.030441         2.367394
 C         2.363722         0.562766         1.191390
 O         2.291343         0.575214        -0.867944
 H        -0.792752         0.330296         0.682756
 H        -0.169536         0.968256        -0.808700
 H        -0.522677        -0.724779        -0.936999
 H         2.137165        -2.087936         0.992806
 H         2.067318        -2.029665        -0.726480
 H         5.316912        -1.012395         0.226478
 H         5.208307         0.897863         0.214391
 H         2.773302        -0.923788         2.680336
 H         3.300577         0.761318         3.140901
 H         2.266342         1.647812         0.963625
