19
Iteration:  4414
 C        -0.086190         0.003428        -0.089537
 C         1.398469        -0.109852         0.075766
 C         2.401876        -1.264690        -0.065264
 C         3.173786        -0.028917         0.077279
 C         4.641618         0.126201         0.569648
 O         4.449754        -0.360837         1.963712
 C         3.053268        -0.085181         2.431800
 C         2.378849         0.547096         1.219899
 O         2.242198         0.693342        -0.818891
 H        -0.340065         1.007521        -0.323416
 H        -0.428501        -0.635788        -0.901327
 H        -0.620733        -0.197850         0.879778
 H         2.629626        -1.859609         0.937665
 H         2.324842        -1.778218        -1.038920
 H         5.384505        -0.580950         0.207960
 H         5.076564         1.101918         0.725232
 H         2.469988        -0.998675         2.564173
 H         3.061993         0.561227         3.294172
 H         2.253844         1.636867         1.254710
