19
Iteration:  1195charge 0 multiplicity 1
 C        -0.063153         0.078238        -0.132846
 C         1.457885        -0.132104         0.179855
 C         2.283245        -1.411083         0.062662
 C         3.156413        -0.068572         0.037782
 C         4.532784         0.126899         0.601058
 O         4.456380        -0.320337         1.976814
 C         3.120769         0.204691         2.428778
 C         2.392598         0.533913         1.218353
 O         2.322194         0.493891        -0.940743
 H        -0.736716        -0.014005         0.825074
 H        -0.263008         0.973152        -0.529129
 H        -0.496206        -0.691251        -0.807412
 H         2.390393        -2.181287         0.792678
 H         2.138628        -1.885910        -0.912830
 H         5.343808        -0.455087         0.070607
 H         4.777090         1.202739         0.614663
 H         2.707491        -0.638071         3.075232
 H         3.115384         1.168252         2.996518
 H         2.427046         1.586319         1.103038
