19
Iteration:  1857
 C        -0.105452         0.173997         0.010797
 C         1.403418        -0.099241         0.019396
 C         2.287066        -1.464496         0.056917
 C         3.164694        -0.156859         0.101457
 C         4.664031        -0.107816         0.506780
 O         4.486204         0.139450         2.034960
 C         3.051232         0.011375         2.414476
 C         2.338431         0.504007         1.177676
 O         2.353454         0.469934        -0.971870
 H        -0.525434        -0.642276         0.536178
 H        -0.316318         1.126818         0.625424
 H        -0.597732         0.348904        -0.985075
 H         2.020015        -2.093096         0.941983
 H         2.216211        -2.147794        -0.822308
 H         5.320855        -0.897295         0.557861
 H         5.167952         0.752037         0.061647
 H         2.938155        -1.052404         2.866130
 H         2.825168         0.733991         3.211772
 H         2.304417         1.630518         1.094567
