19
Iteration:  2601charge 0 multiplicity 1
 C        -0.017558         0.085836        -0.125698
 C         1.371910        -0.112134         0.202805
 C         2.311527        -1.316067         0.216003
 C         3.186991        -0.043414        -0.002564
 C         4.567590        -0.007826         0.519394
 O         4.464234        -0.257627         1.935889
 C         3.121515         0.060260         2.455948
 C         2.309547         0.611277         1.230746
 O         2.337643         0.467502        -1.005623
 H        -0.882364         0.377312         0.582922
 H        -0.045134         1.062922        -0.644886
 H        -0.413862        -0.733585        -0.880171
 H         2.461913        -1.726186         1.202365
 H         2.330603        -2.053861        -0.538800
 H         5.233082        -0.737926         0.160540
 H         4.754801         1.137042         0.446188
 H         2.584033        -0.785900         2.958227
 H         3.109667         0.853582         3.274495
 H         2.247036         1.738954         1.143584
