19
Iteration:  2729
 C        -0.042670         0.191937        -0.013480
 C         1.369144        -0.104683         0.064965
 C         2.200958        -1.429232         0.095094
 C         3.186505        -0.211540         0.081571
 C         4.653634        -0.104133         0.527608
 O         4.476676         0.089039         1.963536
 C         3.062758         0.039090         2.457023
 C         2.326144         0.506220         1.179847
 O         2.381707         0.500730        -0.944044
 H        -0.561082        -0.770568         0.247061
 H        -0.377677         0.995935         0.585906
 H        -0.408620         0.484384        -1.036704
 H         2.182866        -2.171290         0.964703
 H         2.180254        -2.062582        -0.824265
 H         5.389600        -0.951445         0.236514
 H         5.098830         0.811169         0.042152
 H         2.777374        -0.927846         2.794621
 H         2.954755         0.764685         3.286173
 H         2.379172         1.580263         1.231328
