19
Iteration:  3905charge 0 multiplicity 1
 C        -0.123703         0.127772        -0.072654
 C         1.359636        -0.100674         0.046598
 C         2.244801        -1.369861        -0.023712
 C         3.181090        -0.145804         0.192611
 C         4.578380         0.054321         0.539673
 O         4.557671        -0.104915         2.010458
 C         3.084519         0.003682         2.476686
 C         2.328773         0.470336         1.188280
 O         2.383078         0.550210        -0.938073
 H        -0.439102        -0.382345        -0.940115
 H        -0.466537        -0.359713         0.865190
 H        -0.446629         1.241172        -0.158366
 H         2.107291        -2.053357         0.893410
 H         2.349617        -1.854360        -0.965816
 H         5.271296        -0.739409         0.075663
 H         4.981146         1.041257         0.239149
 H         2.802080        -1.097485         2.911873
 H         3.076949         0.854207         3.271391
 H         2.298998         1.583422         1.033475
