19
Iteration:  2472
 C        -0.085308         0.146120        -0.164530
 C         1.387902        -0.068383         0.138057
 C         2.121810        -1.440800         0.179140
 C         3.155986        -0.164456         0.110394
 C         4.619133         0.034169         0.502655
 O         4.543799         0.038844         2.009688
 C         3.147519        -0.014668         2.411294
 C         2.366365         0.480411         1.189925
 O         2.387779         0.472126        -0.930422
 H        -0.804024        -0.136123         0.594338
 H        -0.353932         1.144877        -0.435496
 H        -0.405948        -0.431759        -1.093489
 H         1.877980        -1.994370         1.130046
 H         2.034737        -2.123048        -0.662483
 H         5.285411        -0.860812         0.098557
 H         5.164845         0.890709         0.105390
 H         2.863773        -0.981629         2.757232
 H         2.969970         0.856560         3.166812
 H         2.333987         1.629406         1.223931
