19
Iteration:  2911
 C        -0.188755         0.006167        -0.147735
 C         1.352809        -0.032715         0.109345
 C         2.272361        -1.348546         0.216391
 C         3.221247        -0.104180         0.101195
 C         4.678286        -0.012937         0.561797
 O         4.486811        -0.263957         1.920475
 C         3.107783         0.116525         2.390565
 C         2.275069         0.655923         1.163222
 O         2.361615         0.494148        -0.873697
 H        -0.752608        -0.082823         0.779956
 H        -0.352831         1.055565        -0.510606
 H        -0.403290        -0.575033        -1.028667
 H         2.354714        -1.907473         1.113532
 H         2.282098        -1.942881        -0.668933
 H         5.416123        -0.724486         0.106556
 H         5.157908         0.993233         0.210554
 H         2.899433        -0.785152         2.816587
 H         3.173586         1.012408         2.981987
 H         2.447305         1.739060         1.267779
