19
Iteration:  1606
 C        -0.000164         0.163826        -0.125547
 C         1.356731        -0.112642         0.140212
 C         2.265096        -1.418045         0.080354
 C         3.188137        -0.150141         0.117744
 C         4.665151        -0.178987         0.465833
 O         4.448139         0.214199         1.917040
 C         3.061017        -0.019828         2.440378
 C         2.270729         0.454123         1.227954
 O         2.354781         0.515692        -0.829213
 H        -0.451560        -0.557037         0.487331
 H        -0.266947         1.300105         0.075533
 H        -0.088933        -0.065348        -1.245495
 H         2.147864        -2.172629         0.858682
 H         2.289528        -1.871237        -0.917690
 H         5.088605        -1.131197         0.329731
 H         5.235549         0.693810         0.038633
 H         2.894410        -0.994112         2.763833
 H         3.063092         0.602325         3.291047
 H         1.985797         1.503509         1.305761
