19
Iteration:  1005
 C        -0.194888        -0.022104        -0.180989
 C         1.391283        -0.091800         0.166476
 C         2.232185        -1.373635         0.057906
 C         3.152419        -0.095017         0.036915
 C         4.628021        -0.030610         0.608501
 O         4.569275        -0.179894         2.015970
 C         3.148128         0.083652         2.465729
 C         2.380394         0.617737         1.262924
 O         2.308869         0.612299        -0.952089
 H        -0.811515        -0.239029         0.632792
 H        -0.436977         1.073400        -0.658767
 H        -0.317908        -0.770339        -0.963487
 H         2.111635        -2.107953         0.931985
 H         2.366875        -1.892577        -0.931722
 H         5.363692        -0.765761         0.159321
 H         4.926954         1.017838         0.315277
 H         2.676653        -0.992770         2.768505
 H         3.232894         0.806175         3.297976
 H         2.415080         1.731675         0.975078
