19
Iteration:  2329
 C        -0.056825         0.043079        -0.017331
 C         1.387543        -0.144934         0.177969
 C         2.300471        -1.351042         0.150059
 C         3.195615        -0.050636         0.152645
 C         4.621275        -0.101115         0.498172
 O         4.384636        -0.152061         1.954951
 C         3.068397         0.227831         2.423348
 C         2.328199         0.635656         1.139626
 O         2.392533         0.424951        -1.008696
 H        -0.538727        -0.843526         0.387545
 H        -0.301103         0.980316         0.307842
 H        -0.094320         0.077913        -1.105757
 H         2.223212        -2.040764         0.988263
 H         2.381530        -1.849758        -0.848930
 H         5.215234        -1.090215         0.172469
 H         5.101730         0.835432         0.179525
 H         2.546076        -0.614420         2.951457
 H         3.185595         1.163897         3.125163
 H         2.134366         1.740743         0.961180
