19
Iteration:  3550charge 0 multiplicity 1
 C        -0.117632         0.048549        -0.105916
 C         1.326464        -0.049004         0.076164
 C         2.234222        -1.300364         0.246875
 C         3.189914        -0.065324         0.079616
 C         4.646333         0.049768         0.591623
 O         4.428019        -0.233321         1.943840
 C         3.191831         0.083831         2.441188
 C         2.382559         0.596797         1.118766
 O         2.348461         0.415717        -1.015617
 H        -0.440755         0.286821         0.898202
 H        -0.434471         0.886523        -0.822318
 H        -0.473934        -0.893557        -0.447986
 H         2.308368        -1.846975         1.278541
 H         2.119326        -2.099385        -0.472685
 H         5.307114        -0.743687         0.122549
 H         5.072939         1.088925         0.417561
 H         2.695444        -0.803986         3.097131
 H         3.311327         0.972681         3.191298
 H         2.291737         1.692587         1.050355
