19
Iteration:  3966charge 0 multiplicity 1
 C        -0.141314         0.100303        -0.117651
 C         1.392880        -0.066951         0.046126
 C         2.383840        -1.323549         0.093128
 C         3.150831        -0.046313         0.129488
 C         4.638871        -0.119923         0.541280
 O         4.485063        -0.017850         1.920534
 C         3.132195        -0.069955         2.510739
 C         2.296157         0.613652         1.242591
 O         2.332819         0.493091        -0.953662
 H        -0.522817         0.516111        -1.134891
 H        -0.673505        -0.831198         0.100872
 H        -0.569138         0.751720         0.661535
 H         2.376481        -1.940176         1.007532
 H         2.394198        -1.913876        -0.864356
 H         4.827075        -1.126594         0.281776
 H         5.320926         0.732174         0.345037
 H         2.648360        -1.135722         2.704677
 H         3.185953         0.462368         3.461263
 H         2.115128         1.677340         1.166869
