19
Iteration:  4106
 C        -0.126372        -0.024786        -0.113930
 C         1.318509        -0.034685         0.056513
 C         2.265828        -1.248194         0.029282
 C         3.214552        -0.086222         0.069371
 C         4.682313         0.046100         0.599895
 O         4.457634        -0.257582         1.994237
 C         3.110360         0.031076         2.415104
 C         2.377335         0.467951         1.191437
 O         2.345910         0.648946        -0.896388
 H        -0.598717        -1.087134        -0.115930
 H        -0.513234         0.369581         0.863069
 H        -0.619846         0.561186        -0.912571
 H         2.270192        -1.837031         0.951486
 H         2.234073        -2.026953        -0.784900
 H         5.372287        -0.799861         0.408752
 H         4.996245         1.090210         0.464624
 H         2.818373        -0.926946         2.830761
 H         3.219126         0.842019         3.114437
 H         2.282051         1.576129         1.191307
