19
Iteration:  4596
 C         0.005738         0.133403        -0.055413
 C         1.401939        -0.100583         0.095437
 C         2.288630        -1.354470        -0.105696
 C         3.191951        -0.005024         0.083344
 C         4.543212        -0.019120         0.495887
 O         4.461256         0.035329         1.979888
 C         3.091378        -0.290409         2.432356
 C         2.269708         0.334268         1.317770
 O         2.350852         0.752568        -0.843505
 H        -0.213580         1.037103        -0.646155
 H        -0.478667        -0.707226        -0.578333
 H        -0.544743        -0.012659         0.911757
 H         2.237995        -2.115926         0.685987
 H         2.455015        -1.863747        -1.074603
 H         5.318413        -0.796008         0.376944
 H         5.038649         0.994811         0.254659
 H         3.009088        -1.323984         2.619117
 H         2.921125         0.221280         3.360223
 H         2.176766         1.433316         1.298944
