19
Iteration:  4799charge 0 multiplicity 1
 C        -0.124142         0.076101        -0.057571
 C         1.321507        -0.174588         0.250284
 C         2.336758        -1.325042        -0.083347
 C         3.232421         0.025623         0.107056
 C         4.617515         0.055725         0.559931
 O         4.439903        -0.159279         1.958375
 C         3.043887        -0.136293         2.392568
 C         2.404101         0.502487         1.224092
 O         2.339740         0.682508        -0.878747
 H        -0.755325         0.575345         0.775877
 H        -0.213980         0.402570        -1.109978
 H        -0.532341        -0.967249        -0.050232
 H         2.573764        -2.109926         0.549893
 H         2.420626        -1.698416        -1.152849
 H         5.156590        -0.867525         0.117495
 H         5.206936         1.003279         0.230220
 H         2.873661        -1.137791         2.651831
 H         2.937517         0.406362         3.354626
 H         2.297353         1.577457         1.201472
