19
Iteration:  4941
 C         0.015357        -0.003563        -0.029329
 C         1.490913        -0.097017         0.149992
 C         2.248825        -1.330647        -0.139257
 C         3.206427         0.007501         0.049048
 C         4.580210         0.081190         0.563232
 O         4.506928        -0.175034         2.005032
 C         3.033930        -0.231620         2.398116
 C         2.322400         0.489134         1.301599
 O         2.256906         0.753820        -0.885125
 H        -0.373498         0.882472        -0.721930
 H        -0.445225        -0.882303        -0.563603
 H        -0.749253         0.212280         0.765189
 H         2.203077        -1.948180         0.733153
 H         2.446372        -1.754166        -1.114932
 H         5.352287        -0.599657         0.072154
 H         4.971210         1.116332         0.452219
 H         2.762628        -1.267127         2.651396
 H         3.005668         0.260283         3.394664
 H         2.255821         1.581578         1.447649
