19
Iteration:   700charge 0 multiplicity 1
 C        -0.044083        -0.103421        -0.084428
 C         1.425440        -0.069524         0.172489
 C         2.421872        -1.341298         0.094367
 C         3.187328         0.024901         0.067872
 C         4.652721         0.037930         0.499086
 O         4.291439        -0.449998         1.944451
 C         3.155358         0.274272         2.505404
 C         2.320845         0.667597         1.228263
 O         2.254424         0.509017        -0.974618
 H        -0.576088        -0.577147         0.606606
 H        -0.384336         1.048501        -0.049706
 H        -0.182873        -0.516855        -1.114789
 H         2.537471        -2.150857         0.875356
 H         2.253862        -1.818457        -0.883145
 H         5.267693        -0.701962        -0.084793
 H         4.965778         1.034220         0.561877
 H         2.601722        -0.382615         3.136912
 H         3.522674         1.219802         3.053264
 H         2.244705         1.839865         1.136666
