19
Iteration:  4506charge 0 multiplicity 1
 C        -0.123862         0.016773        -0.038056
 C         1.376038        -0.093940         0.153841
 C         2.357432        -1.295193        -0.044516
 C         3.148201         0.055178         0.115965
 C         4.637593         0.060656         0.566530
 O         4.484327        -0.246471         1.987364
 C         3.065842        -0.119004         2.435761
 C         2.313344         0.503388         1.267228
 O         2.349254         0.638279        -0.974466
 H        -0.602247         0.823977         0.641534
 H        -0.321891         0.480957        -1.032085
 H        -0.561190        -0.950117         0.088674
 H         2.510719        -2.128433         0.677757
 H         2.318624        -1.686221        -1.164441
 H         5.257702        -0.708167         0.079035
 H         4.940589         1.148284         0.341738
 H         2.731718        -1.118397         2.685706
 H         3.149814         0.532053         3.222808
 H         2.369460         1.638828         1.327335
