19
Iteration:  2510charge 0 multiplicity 1
 C        -0.152345         0.009214         0.009335
 C         1.380270        -0.057416         0.124218
 C         2.347575        -1.350775         0.074981
 C         3.226895        -0.065368         0.093742
 C         4.660426        -0.182088         0.520736
 O         4.424592        -0.098461         2.052055
 C         3.020411         0.147410         2.366653
 C         2.435173         0.706968         1.120450
 O         2.298303         0.472618        -0.959149
 H        -0.505209        -0.832295         0.634260
 H        -0.489737         1.046309         0.242158
 H        -0.344233        -0.183642        -1.018482
 H         2.417026        -2.107038         0.863705
 H         2.394409        -1.693450        -0.991209
 H         4.838936        -1.235954         0.235520
 H         5.415195         0.604777         0.413738
 H         2.560045        -0.823224         2.855516
 H         3.011917         0.832732         3.162826
 H         2.538176         1.750398         0.947357
