19
Iteration:   118charge 0 multiplicity 1
 C        -0.139923        -0.070269        -0.102334
 C         1.384923        -0.066001         0.006050
 C         2.171459        -1.293909        -0.060508
 C         3.215886        -0.209363         0.146040
 C         4.756591        -0.140527         0.623645
 O         4.539935         0.013721         2.028508
 C         3.112503         0.160722         2.430530
 C         2.317245         0.486942         1.216867
 O         2.257925         0.634558        -0.906511
 H        -0.508692        -0.752035         0.876082
 H        -0.460011         0.940083        -0.104059
 H        -0.350907        -0.618703        -0.982209
 H         2.020571        -1.837675         0.899799
 H         2.240138        -1.840200        -0.971452
 H         5.233113        -1.143747         0.536710
 H         5.328896         0.743265         0.207591
 H         2.848288        -0.880255         2.757646
 H         3.132998         0.910107         3.194584
 H         2.350453         1.542193         1.062651
