19
Iteration:  2232charge 0 multiplicity 1
 C        -0.125145         0.025841         0.000210
 C         1.429392        -0.103809         0.108295
 C         2.253115        -1.361961         0.077759
 C         3.279069        -0.081198         0.076561
 C         4.646307        -0.199087         0.574768
 O         4.467585         0.039519         2.009240
 C         2.976247         0.101160         2.389465
 C         2.385168         0.591289         1.087022
 O         2.329273         0.533522        -0.956924
 H        -0.482788         0.010770         1.030026
 H        -0.399213         0.824437        -0.606960
 H        -0.516581        -0.912637        -0.459054
 H         2.278331        -2.037869         0.978441
 H         2.141897        -1.958823        -0.888051
 H         5.050521        -1.233039         0.491598
 H         5.369661         0.566425         0.281406
 H         2.834347        -0.886189         2.834671
 H         2.988995         0.891306         3.196762
 H         2.282098         1.746055         1.083625
