19
Iteration:  1834
 C        -0.114574         0.078171        -0.061860
 C         1.387274        -0.098006         0.152674
 C         2.206130        -1.389660         0.068619
 C         3.150843        -0.195872         0.101406
 C         4.577415         0.007085         0.500009
 O         4.493498        -0.028093         1.979793
 C         3.105521         0.111152         2.439841
 C         2.372471         0.506508         1.190398
 O         2.444679         0.499526        -0.934574
 H        -0.552553        -0.467032         0.710135
 H        -0.399814         1.225732        -0.053040
 H        -0.419610        -0.228331        -1.119196
 H         2.204735        -2.150492         0.907542
 H         2.022556        -2.024619        -0.844843
 H         5.305516        -0.724344         0.301908
 H         5.002397         0.978198         0.283063
 H         2.698326        -0.920750         2.824289
 H         2.973178         0.801089         3.255846
 H         2.364879         1.572082         0.871766
