19
Iteration:  1923charge 0 multiplicity 1
 C        -0.049458         0.079877        -0.119535
 C         1.384400        -0.115727         0.018446
 C         2.129542        -1.384909         0.050203
 C         3.124631        -0.219034         0.186667
 C         4.545955        -0.140977         0.575935
 O         4.550235         0.186758         1.972119
 C         3.206313         0.021077         2.431328
 C         2.343346         0.479468         1.275087
 O         2.402124         0.547339        -0.963872
 H        -0.686645        -0.691068         0.358438
 H        -0.458464         0.938913         0.512993
 H        -0.359959         0.066661        -1.179811
 H         1.997427        -2.101325         0.935003
 H         2.253910        -2.014110        -0.874004
 H         5.114818        -0.983286         0.103980
 H         5.038569         0.751037         0.141913
 H         2.847255        -0.882238         2.920512
 H         2.972292         0.758156         3.253687
 H         2.259470         1.619504         1.229390
