19
Iteration:  2651charge 0 multiplicity 1
 C        -0.096903         0.090718        -0.107600
 C         1.343065        -0.016105         0.177403
 C         2.222276        -1.387898         0.053361
 C         3.170013        -0.217695         0.093430
 C         4.566065        -0.065487         0.573972
 O         4.539113        -0.029113         2.023641
 C         3.180673         0.057097         2.495345
 C         2.305570         0.506693         1.216767
 O         2.394594         0.577062        -1.064905
 H        -0.696182         0.112631         0.781810
 H        -0.505342         0.935471        -0.727821
 H        -0.376975        -0.778335        -0.622226
 H         2.258952        -2.014917         0.986120
 H         2.078332        -1.981854        -0.921818
 H         5.150076        -1.052768         0.272092
 H         5.006464         0.835019         0.179987
 H         2.812678        -0.987914         2.813044
 H         3.047652         0.839658         3.258671
 H         2.427222         1.560265         1.160678
