19
Iteration:  2631charge 0 multiplicity 1
 C        -0.136091         0.050310        -0.214928
 C         1.353700        -0.107046         0.102008
 C         2.148577        -1.338463         0.107569
 C         3.204218        -0.076391         0.132304
 C         4.688903        -0.037835         0.552035
 O         4.542516        -0.125399         1.978724
 C         3.132944         0.076386         2.467399
 C         2.439492         0.603254         1.213783
 O         2.288104         0.472199        -0.851069
 H        -0.644605         0.252761         0.740082
 H        -0.234110         0.902833        -0.864480
 H        -0.650515        -0.763858        -0.751820
 H         2.121271        -2.119854         0.875877
 H         2.235849        -1.740553        -0.935365
 H         5.325561        -0.820985         0.095723
 H         5.068077         0.923088         0.168945
 H         2.515386        -0.888753         2.686253
 H         3.006604         0.836183         3.170914
 H         2.415722         1.661606         1.011221
