19
Iteration:  4867
 C        -0.015253         0.149170        -0.066516
 C         1.385010        -0.096885         0.160499
 C         2.352792        -1.351970        -0.149092
 C         3.140211        -0.087259         0.128981
 C         4.622823         0.023444         0.507624
 O         4.509778         0.049292         1.995113
 C         3.054959        -0.244734         2.422422
 C         2.335072         0.410565         1.331138
 O         2.278342         0.632464        -0.864331
 H        -0.571334         0.988877         0.308582
 H        -0.224415         0.109504        -1.145777
 H        -0.701454        -0.565608         0.419979
 H         2.244722        -2.279617         0.417758
 H         2.264996        -1.503831        -1.189776
 H         5.362527        -0.746496         0.294445
 H         5.027348         1.064483         0.196312
 H         2.817989        -1.306966         2.400508
 H         2.819593         0.096482         3.375219
 H         2.271116         1.452479         1.369723
