19
Iteration:  3824charge 0 multiplicity 1
 C        -0.176202        -0.060087        -0.007436
 C         1.346334        -0.021918         0.086606
 C         2.259621        -1.262064         0.027435
 C         3.208956         0.007194         0.022199
 C         4.611374         0.056846         0.597812
 O         4.482889        -0.304037         2.005202
 C         3.049539         0.027886         2.428039
 C         2.400115         0.549685         1.184407
 O         2.408136         0.571243        -0.994452
 H        -0.514374        -1.106014        -0.487888
 H        -0.592421         0.103284         1.011988
 H        -0.299194         0.817850        -0.563080
 H         2.246296        -1.929310         0.922184
 H         2.201797        -1.906242        -0.970666
 H         5.236688        -0.716039         0.159443
 H         5.157257         1.096823         0.716434
 H         2.710718        -0.838475         3.017285
 H         3.198910         0.846887         3.182681
 H         2.427733         1.619906         1.316153
