19
Iteration:  4389
 C        -0.137658         0.035478        -0.067752
 C         1.433066        -0.053839         0.162320
 C         2.330837        -1.298851        -0.080885
 C         3.178444        -0.006400         0.083128
 C         4.630127         0.167602         0.605922
 O         4.488181        -0.274264         1.962730
 C         3.074886        -0.182311         2.435271
 C         2.341283         0.493121         1.238474
 O         2.343053         0.658861        -0.906018
 H        -0.432662         0.834983        -0.814134
 H        -0.321371        -0.857322        -0.659587
 H        -0.790482         0.028694         0.805484
 H         2.111709        -2.118921         0.668687
 H         2.110202        -1.573068        -1.092254
 H         5.398526        -0.534003         0.221511
 H         4.985516         1.129668         0.685264
 H         2.619268        -1.177854         2.593866
 H         3.031858         0.524964         3.355499
 H         2.207649         1.569057         1.364805
