19
Iteration:  4395
 C        -0.186493         0.004246        -0.109477
 C         1.419376        -0.081574         0.189422
 C         2.352720        -1.331316        -0.043760
 C         3.245278         0.008093         0.114399
 C         4.678850         0.145756         0.609513
 O         4.444580        -0.298727         1.950710
 C         3.035599        -0.158416         2.416796
 C         2.376340         0.519230         1.229237
 O         2.313931         0.683554        -0.891124
 H        -0.485703         1.004185        -0.511715
 H        -0.352492        -0.921200        -0.724926
 H        -0.837749         0.191611         0.775380
 H         2.058423        -2.185122         0.550393
 H         2.212032        -1.439926        -1.173875
 H         5.468012        -0.467069         0.174255
 H         4.961954         1.319423         0.440260
 H         2.737605        -1.183162         2.682345
 H         3.088657         0.455960         3.273608
 H         2.381519         1.629122         1.244429
