19
Iteration:  1188
 C        -0.102012         0.048624        -0.123479
 C         1.400129        -0.085561         0.214964
 C         2.310137        -1.393723         0.047914
 C         3.171167        -0.160095         0.028919
 C         4.631737         0.134856         0.615076
 O         4.485582        -0.288414         1.993627
 C         3.105322         0.144823         2.450865
 C         2.364863         0.566359         1.157726
 O         2.289537         0.518956        -0.935566
 H        -0.961644         0.059230         0.641160
 H        -0.309929         1.086622        -0.721772
 H        -0.331536        -0.755398        -0.861151
 H         2.278361        -2.107777         0.948144
 H         2.174219        -1.910702        -0.919803
 H         5.311936        -0.528765         0.065598
 H         4.887494         1.215870         0.497414
 H         2.628248        -0.680793         3.157642
 H         3.370777         1.004644         3.091934
 H         2.401263         1.691275         1.023780
