19
Iteration:  1779
 C        -0.166247        -0.004762        -0.108106
 C         1.407553        -0.171528         0.139451
 C         2.393156        -1.336191         0.248212
 C         3.169211         0.017006         0.094504
 C         4.586656         0.024625         0.495052
 O         4.432092        -0.321948         1.905776
 C         3.051497         0.118150         2.423843
 C         2.399126         0.656151         1.192575
 O         2.363400         0.557050        -0.977072
 H        -0.724112         0.283949         0.735153
 H        -0.270981         0.912402        -0.786442
 H        -0.597184        -0.936485        -0.549332
 H         2.429047        -1.831675         1.261169
 H         2.607004        -1.990746        -0.627809
 H         5.235266        -0.692647         0.137969
 H         5.149536         0.925779         0.620527
 H         2.470156        -0.764318         3.017328
 H         3.295569         0.900069         3.126535
 H         2.012821         1.621515         0.926467
