19
Iteration:   565charge 0 multiplicity 1
 C        -0.028801         0.119660        -0.125807
 C         1.384040        -0.174351         0.051831
 C         2.244890        -1.428735        -0.131397
 C         3.098104        -0.253393         0.129248
 C         4.566848        -0.162128         0.560574
 O         4.522880         0.288635         1.929110
 C         3.128804         0.020084         2.508831
 C         2.317698         0.438030         1.273928
 O         2.328011         0.611195        -0.781243
 H        -0.628576        -0.479113         0.688728
 H        -0.124438         1.129915        -0.085773
 H        -0.489053        -0.218341        -1.029726
 H         2.143144        -2.199155         0.635644
 H         2.412341        -1.916746        -1.115411
 H         5.075510        -1.242826         0.600801
 H         5.164648         0.534648        -0.079025
 H         3.044354        -1.043561         2.993911
 H         3.075189         0.736235         3.223075
 H         2.596205         1.444266         1.152035
