19
Iteration:  2431
 C        -0.042957         0.327122        -0.194888
 C         1.378674        -0.204627         0.161267
 C         2.194528        -1.468890         0.130675
 C         3.157221        -0.149634         0.093246
 C         4.587933         0.047211         0.516110
 O         4.540069         0.104298         1.985163
 C         3.143426         0.001452         2.448563
 C         2.301209         0.423556         1.256335
 O         2.307106         0.395258        -0.929822
 H        -0.558182         0.491158         0.708529
 H         0.108713         1.335340        -0.675693
 H        -0.253811        -0.537618        -0.777807
 H         2.234702        -2.189013         1.026289
 H         2.305222        -2.069320        -0.787417
 H         5.213087        -0.843115         0.066855
 H         4.992749         0.910659        -0.003815
 H         3.030977        -1.129583         2.750438
 H         2.943297         0.625161         3.333167
 H         2.210839         1.536087         1.095315
