19
Iteration:  4566charge 0 multiplicity 1
 C        -0.178672         0.111495        -0.093537
 C         1.335952        -0.056027         0.150552
 C         2.254156        -1.368395        -0.157405
 C         3.202921        -0.064526         0.103292
 C         4.646335         0.038636         0.595664
 O         4.533572         0.005470         2.068285
 C         3.141493        -0.256187         2.414784
 C         2.383352         0.450874         1.243567
 O         2.292835         0.656862        -0.900173
 H        -0.483210         1.130531        -0.097720
 H        -0.366255        -0.418544        -1.049949
 H        -0.822341        -0.490339         0.629310
 H         2.244869        -2.254431         0.464657
 H         2.334547        -1.585087        -1.144507
 H         5.475199        -0.701571         0.365177
 H         5.015412         1.047554         0.210783
 H         2.865136        -1.340106         2.448008
 H         2.998621         0.012025         3.542339
 H         2.514736         1.579658         1.417437
