19
Iteration:  1003
 C        -0.184977        -0.020541        -0.183330
 C         1.386287        -0.089682         0.167087
 C         2.244741        -1.371759         0.042712
 C         3.170016        -0.097209         0.026080
 C         4.625901        -0.026423         0.608291
 O         4.554929        -0.194796         2.007675
 C         3.134437         0.091968         2.460027
 C         2.388571         0.636781         1.271282
 O         2.304920         0.603262        -0.934263
 H        -0.798235        -0.199895         0.660397
 H        -0.419853         0.990606        -0.619555
 H        -0.336600        -0.812887        -0.956676
 H         2.099881        -2.091288         0.989309
 H         2.375307        -1.876944        -0.958382
 H         5.328987        -0.780595         0.191172
 H         4.886860         1.019384         0.284770
 H         2.721645        -0.982844         2.811227
 H         3.239963         0.814909         3.263869
 H         2.392929         1.744197         1.011188
