19
Iteration:   664charge 0 multiplicity 1
 C        -0.197724         0.025006        -0.110172
 C         1.389689        -0.123278         0.174134
 C         2.353889        -1.399032         0.116113
 C         3.176654        -0.096513         0.084773
 C         4.618837         0.019872         0.524189
 O         4.480833        -0.225295         2.009209
 C         3.133612         0.144075         2.412311
 C         2.304581         0.576421         1.181490
 O         2.337122         0.563199        -0.960983
 H        -0.802014        -0.500707         0.682741
 H        -0.512923         1.067818        -0.165979
 H        -0.528599        -0.385650        -1.091980
 H         2.532587        -2.009598         1.008524
 H         2.466156        -1.862677        -0.883191
 H         5.485583        -0.553606         0.026568
 H         5.093865         1.032655         0.580947
 H         2.598353        -0.685591         2.990481
 H         3.282082         0.937995         3.123502
 H         2.367254         1.625037         0.916448
