19
Iteration:  4100
 C        -0.129607        -0.016249        -0.074865
 C         1.412775        -0.063280        -0.009592
 C         2.234985        -1.248612         0.065263
 C         3.200505        -0.083127         0.095528
 C         4.652467         0.020039         0.609138
 O         4.474320        -0.244133         2.004449
 C         3.134891         0.002929         2.426580
 C         2.368429         0.514329         1.177427
 O         2.283348         0.650592        -0.925737
 H        -0.382072        -1.020446        -0.208898
 H        -0.623432         0.255409         0.838284
 H        -0.354135         0.650702        -0.957933
 H         2.154424        -1.996181         0.885958
 H         2.240652        -1.825219        -0.849946
 H         5.431161        -0.697699         0.336561
 H         5.038619         1.056628         0.480582
 H         2.899340        -0.990647         2.973874
 H         3.023757         0.794000         3.258413
 H         2.380070         1.595451         1.059710
