19
Iteration:  1152
 C        -0.072047         0.008224        -0.144276
 C         1.354157        -0.042234         0.082002
 C         2.307388        -1.336368         0.143781
 C         3.152856        -0.007785         0.105090
 C         4.558572        -0.062360         0.534121
 O         4.547062        -0.066682         1.999350
 C         3.081323        -0.064548         2.428030
 C         2.339544         0.658784         1.225012
 O         2.320505         0.529809        -0.967217
 H        -0.590789        -0.286035         0.912244
 H        -0.303871         0.947783        -0.538797
 H        -0.247243        -0.823645        -0.909113
 H         2.213557        -1.877286         1.078534
 H         2.358689        -2.067295        -0.705494
 H         4.916908        -1.107273         0.219764
 H         5.327878         0.653980         0.192597
 H         2.643553        -1.157679         2.764722
 H         3.180421         0.580155         3.351701
 H         2.383834         1.729902         1.185509
