19
Iteration:  2011charge 0 multiplicity 1
 C        -0.155096         0.009661         0.084811
 C         1.424692        -0.105557         0.160542
 C         2.349364        -1.354825         0.105828
 C         3.237989        -0.085196         0.044717
 C         4.617800         0.136556         0.543406
 O         4.359233        -0.348483         2.011629
 C         3.036364         0.134686         2.343661
 C         2.312938         0.692048         1.083074
 O         2.444411         0.471446        -1.016501
 H        -0.486251         0.138684         1.204862
 H        -0.425049         0.913687        -0.478748
 H        -0.507360        -0.955941        -0.256105
 H         2.380808        -1.924880         1.084488
 H         2.348125        -1.927605        -0.839539
 H         5.292591        -0.590163        -0.005353
 H         5.079708         1.185807         0.646603
 H         2.539376        -0.700754         2.735716
 H         3.301652         0.769318         3.211156
 H         2.155501         1.823064         0.927987
