19
Iteration:  3253
 C        -0.098868         0.104908        -0.210262
 C         1.331529        -0.068918         0.139627
 C         2.266496        -1.410999         0.235348
 C         3.233244        -0.149895         0.107049
 C         4.667747         0.005494         0.521195
 O         4.453486        -0.123154         1.938614
 C         3.158557         0.100958         2.463321
 C         2.367008         0.562718         1.216562
 O         2.262592         0.489411        -0.957161
 H        -0.809422        -0.443585         0.448220
 H        -0.329789         1.206454         0.031094
 H        -0.466006        -0.359844        -1.205102
 H         2.290405        -2.012408         1.096027
 H         2.334731        -1.917546        -0.756789
 H         5.331307        -0.745630         0.205736
 H         5.077541         0.905873         0.111976
 H         2.717853        -0.935366         2.976214
 H         3.336331         0.900549         3.200576
 H         2.374735         1.644349         1.067530
