19
Iteration:  1098charge 0 multiplicity 1
 C        -0.069960         0.164055        -0.011419
 C         1.388680        -0.080062        -0.013670
 C         2.217507        -1.371886        -0.076456
 C         3.229911        -0.294538         0.100602
 C         4.595085        -0.154718         0.616212
 O         4.509006         0.239567         2.086566
 C         3.118765         0.009949         2.429628
 C         2.381070         0.432552         1.183854
 O         2.277659         0.519154        -0.954606
 H        -0.531030        -0.723506         0.702761
 H        -0.206078         1.069316         0.495663
 H        -0.599885         0.159928        -1.039503
 H         2.039965        -2.197450         0.591370
 H         2.206177        -1.933789        -1.002001
 H         5.302102        -1.001857         0.526161
 H         5.077851         0.743740         0.220322
 H         2.841087        -1.078539         2.720094
 H         2.932230         0.712481         3.273765
 H         2.445217         1.492926         1.206382
