19
Iteration:  2249
 C        -0.067822         0.023505        -0.074368
 C         1.345680        -0.146173         0.217155
 C         2.327778        -1.347345         0.115455
 C         3.097814        -0.089765         0.065049
 C         4.605430        -0.084182         0.551869
 O         4.467600        -0.063944         1.992190
 C         3.102757         0.131543         2.425301
 C         2.338090         0.625537         1.215907
 O         2.406273         0.466064        -1.033229
 H        -0.750645         0.146646         0.815031
 H        -0.148358         1.065801        -0.558625
 H        -0.495188        -0.716502        -0.712490
 H         2.391313        -1.998186         0.966425
 H         2.349318        -1.869596        -0.802358
 H         4.976650        -1.062239         0.194356
 H         5.237106         0.701934         0.121307
 H         2.490887        -0.734098         2.734656
 H         2.988175         0.857357         3.253246
 H         2.410733         1.653590         1.002266
