19
Iteration:  1863charge 0 multiplicity 1
 C        -0.076641         0.192549         0.021272
 C         1.420812        -0.130115         0.036758
 C         2.240309        -1.445843         0.050523
 C         3.181687        -0.179125         0.085831
 C         4.652979        -0.090520         0.540554
 O         4.484635         0.177653         2.044667
 C         3.088883         0.008849         2.429907
 C         2.330449         0.504707         1.172229
 O         2.314187         0.452841        -0.997570
 H        -0.458572        -0.767717         0.487711
 H        -0.206622         1.095844         0.594510
 H        -0.482474         0.478214        -0.957273
 H         2.255954        -2.089847         0.940657
 H         2.240847        -1.999834        -0.883136
 H         5.128808        -1.193900         0.403469
 H         5.295164         0.765346         0.253189
 H         2.754584        -1.036299         2.589748
 H         2.792340         0.617770         3.295571
 H         2.263721         1.560291         1.026849
