19
Iteration:  3742charge 0 multiplicity 1
 C        -0.030872         0.118304        -0.071584
 C         1.384030        -0.039070         0.054019
 C         2.230926        -1.434361         0.163748
 C         3.192161        -0.066659         0.115700
 C         4.622406         0.139255         0.483288
 O         4.477542        -0.232118         1.952612
 C         3.045199        -0.009511         2.437755
 C         2.325879         0.612578         1.171189
 O         2.369938         0.470293        -0.893291
 H        -0.356082         0.345007        -1.063562
 H        -0.340178        -0.970515        -0.007307
 H        -0.750909         0.794303         0.583768
 H         2.153734        -2.073802         1.023287
 H         2.043905        -1.952849        -0.723173
 H         5.443880        -0.571937         0.103404
 H         5.080984         1.225413         0.417134
 H         2.739422        -0.985397         2.634254
 H         3.234798         0.629694         3.241591
 H         2.381019         1.735563         1.144805
