19
Iteration:  3514
 C        -0.041577         0.019452        -0.068117
 C         1.455279        -0.062683         0.191232
 C         2.345452        -1.292113         0.197708
 C         3.211778        -0.106313         0.130942
 C         4.577362        -0.062094         0.516611
 O         4.349161        -0.282723         1.932476
 C         3.038582         0.212961         2.382957
 C         2.415313         0.741105         1.081530
 O         2.297392         0.426694        -0.932555
 H        -0.443559        -0.621906         0.704333
 H        -0.548870         0.970489         0.023942
 H        -0.312334        -0.515737        -0.925330
 H         2.495115        -1.883995         1.123556
 H         2.342754        -1.829014        -0.794045
 H         5.149586        -0.897557         0.243275
 H         5.088433         0.830941         0.219062
 H         2.515526        -0.719887         2.900383
 H         3.294051         0.982029         3.123391
 H         2.469263         1.809008         0.740126
