19
Iteration:  4467charge 0 multiplicity 1
 C        -0.153575        -0.016092        -0.051624
 C         1.403146        -0.063202         0.138501
 C         2.384572        -1.345214        -0.001841
 C         3.173044        -0.071107         0.113603
 C         4.621849         0.139477         0.604540
 O         4.458632        -0.383409         1.923348
 C         3.016114        -0.071629         2.371073
 C         2.419466         0.604045         1.173395
 O         2.300803         0.737017        -0.881154
 H        -0.617414         0.681065         0.597052
 H        -0.323688         0.058347        -1.108369
 H        -0.620420        -0.984209         0.298494
 H         2.508088        -2.134027         0.798107
 H         2.609319        -1.701790        -0.973014
 H         5.426656        -0.469170         0.135190
 H         4.976873         1.127772         0.667142
 H         2.485585        -0.962970         2.824373
 H         3.044690         0.730029         3.252301
 H         2.407775         1.717127         1.211872
