19
Iteration:  1584
 C        -0.131091         0.086510        -0.075202
 C         1.337304        -0.074129         0.064403
 C         2.265112        -1.370680         0.078968
 C         3.202415        -0.165922         0.052149
 C         4.572598        -0.132867         0.660431
 O         4.518528         0.195334         2.049983
 C         3.137008        -0.082270         2.372378
 C         2.417219         0.507115         1.212573
 O         2.287353         0.521015        -1.011842
 H        -0.601258        -0.256434         0.809804
 H        -0.135759         1.297203        -0.130685
 H        -0.429648        -0.418692        -1.074816
 H         2.341681        -2.068915         0.921026
 H         2.160705        -1.933522        -0.857692
 H         4.953152        -1.104315         0.472467
 H         5.187810         0.743223         0.270491
 H         2.866707        -1.070546         2.498196
 H         2.976182         0.401982         3.283574
 H         2.603889         1.582239         1.359977
