19
Iteration:   339charge 0 multiplicity 1
 C        -0.095116         0.298321        -0.098334
 C         1.364724        -0.246350         0.083509
 C         2.300540        -1.523192        -0.023899
 C         3.172539        -0.226695         0.213792
 C         4.585901         0.086303         0.548206
 O         4.500744         0.097335         1.934814
 C         3.137772         0.035929         2.444479
 C         2.302624         0.457060         1.220774
 O         2.329035         0.414439        -0.867685
 H        -0.878310        -0.277132         0.423531
 H        -0.139070         1.308839         0.232929
 H        -0.237972         0.236474        -1.171258
 H         2.274450        -2.201228         0.768822
 H         2.453553        -1.896877        -1.047580
 H         5.316334        -0.593691         0.238665
 H         4.990774         1.023913         0.077923
 H         2.830110        -0.912218         2.915779
 H         2.976981         0.851556         3.216658
 H         2.333587         1.525989         1.164722
