19
Iteration:  3425charge 0 multiplicity 1
 C        -0.124795         0.189290        -0.156538
 C         1.353690        -0.121056         0.111069
 C         2.252792        -1.442704         0.268953
 C         3.197012        -0.131166         0.125492
 C         4.571287        -0.006185         0.561148
 O         4.539574        -0.057483         1.965602
 C         3.158728         0.066629         2.426522
 C         2.340003         0.637243         1.150721
 O         2.335417         0.387390        -1.002425
 H        -0.720845        -0.710918         0.012344
 H        -0.505779         0.904212         0.466951
 H        -0.277361         0.504600        -1.225094
 H         2.606687        -1.997439         1.143366
 H         2.110874        -2.144662        -0.617227
 H         5.190769        -0.819840         0.180562
 H         4.969715         0.975507         0.178249
 H         2.688992        -1.006540         2.750262
 H         3.083637         0.765711         3.272140
 H         2.297576         1.779824         1.130911
