19
Iteration:  4245
 C        -0.116575         0.085237        -0.083491
 C         1.379150        -0.130495         0.033306
 C         2.377681        -1.288816        -0.052012
 C         3.209202        -0.055373         0.132565
 C         4.749865         0.015252         0.572899
 O         4.494108        -0.079448         2.035410
 C         3.030438        -0.192520         2.420796
 C         2.342535         0.487099         1.239163
 O         2.184005         0.658438        -0.894876
 H        -0.497547         0.740869         0.712556
 H        -0.242916         0.623546        -1.013912
 H        -0.567396        -0.811962        -0.169389
 H         2.136336        -1.897205         0.796719
 H         2.311294        -1.850219        -1.040355
 H         5.271536        -0.891565         0.196556
 H         5.185935         0.930633         0.347887
 H         2.765160        -1.239386         2.501557
 H         3.034164         0.374574         3.434445
 H         2.508621         1.554581         1.382046
