19
Iteration:  2008charge 0 multiplicity 1
 C        -0.138284         0.024942         0.081638
 C         1.391959        -0.099228         0.163181
 C         2.369985        -1.343545         0.132484
 C         3.237952        -0.081048         0.054428
 C         4.623065         0.153848         0.518238
 O         4.352623        -0.342712         2.000309
 C         3.048806         0.115592         2.352402
 C         2.305771         0.703388         1.101052
 O         2.452275         0.451072        -1.010366
 H        -0.508584         0.114700         1.096470
 H        -0.547269         0.940677        -0.574778
 H        -0.598591        -0.945416        -0.312732
 H         2.340904        -2.001755         1.026397
 H         2.423854        -1.872276        -0.839907
 H         5.284943        -0.682270         0.009123
 H         5.066641         1.119199         0.651932
 H         2.618030        -0.848570         2.717122
 H         3.270634         0.838535         3.177701
 H         2.127466         1.745186         0.916562
