19
Iteration:   612charge 0 multiplicity 1
 C        -0.169487         0.134820        -0.006738
 C         1.434109        -0.096679         0.086485
 C         2.304205        -1.380876         0.075305
 C         3.210222        -0.194556         0.079289
 C         4.606360        -0.027182         0.566367
 O         4.502791         0.183061         2.014795
 C         3.024919        -0.107737         2.370431
 C         2.400215         0.460012         1.145762
 O         2.337432         0.501440        -0.935241
 H        -0.709173        -0.196997         0.791730
 H        -0.284203         1.297350        -0.156479
 H        -0.719094        -0.258392        -0.920348
 H         2.285282        -1.976748         1.001336
 H         2.162982        -2.028044        -0.795496
 H         5.295893        -0.910298         0.429150
 H         5.110916         0.779682         0.138948
 H         2.905659        -1.166851         2.376921
 H         2.837112         0.292741         3.441652
 H         2.374067         1.606448         1.169064
