19
Iteration:  2140charge 0 multiplicity 1
 C        -0.110369         0.195628        -0.231388
 C         1.401290        -0.147996         0.140869
 C         2.206635        -1.440754         0.145725
 C         3.133956        -0.201667         0.159997
 C         4.630178         0.068818         0.504627
 O         4.553190         0.102099         1.966025
 C         3.155064         0.002734         2.495806
 C         2.356607         0.487432         1.226474
 O         2.285244         0.377838        -0.955761
 H        -0.779424        -0.464453         0.242022
 H        -0.346103         1.239157         0.011515
 H        -0.111772         0.342782        -1.263282
 H         2.125637        -1.996536         1.081006
 H         1.953177        -1.966299        -0.751785
 H         5.340268        -0.818764         0.323549
 H         5.003590         1.008901         0.128499
 H         2.984666        -1.052116         2.845800
 H         3.252808         0.732828         3.380203
 H         2.308029         1.558591         1.086828
