19
Iteration:  1228charge 0 multiplicity 1
 C        -0.170841         0.102007         0.023651
 C         1.410374        -0.113120         0.051223
 C         2.453070        -1.395783         0.151139
 C         3.265778        -0.002955         0.084182
 C         4.622674         0.076785         0.585993
 O         4.410519        -0.343087         1.942593
 C         3.017868         0.175183         2.376592
 C         2.293607         0.557523         1.179133
 O         2.325524         0.473608        -1.014401
 H        -0.570588        -0.389266         0.980169
 H        -0.312367         1.084442         0.085900
 H        -0.564117        -0.272934        -0.919662
 H         2.477895        -1.897218         1.105061
 H         2.491356        -1.981764        -0.763864
 H         5.314604        -0.695726         0.144643
 H         5.120163         1.052341         0.560761
 H         2.679060        -0.663267         3.039620
 H         3.036888         1.090332         2.984869
 H         2.263253         1.614775         1.052799
