19
Iteration:  1179charge 0 multiplicity 1
 C        -0.145698         0.030070        -0.157041
 C         1.291558        -0.077004         0.186438
 C         2.279973        -1.351812         0.072404
 C         3.266571        -0.161167         0.109493
 C         4.702782         0.071231         0.572178
 O         4.489950        -0.243065         1.981255
 C         3.111888         0.089589         2.473683
 C         2.365356         0.594879         1.158294
 O         2.237487         0.540893        -0.944963
 H        -0.761257        -0.024927         0.688464
 H        -0.157527         1.047506        -0.810455
 H        -0.253493        -0.783169        -0.852224
 H         2.332162        -1.948575         1.038662
 H         2.272655        -1.916927        -0.870378
 H         5.551863        -0.552940         0.348549
 H         4.989049         1.114388         0.352093
 H         2.702822        -0.792150         2.927537
 H         3.285561         0.856497         3.220906
 H         2.350444         1.715415         0.945742
