19
Iteration:  4298
 C        -0.114722         0.079004        -0.119034
 C         1.354319        -0.066780         0.063595
 C         2.295459        -1.312316        -0.058053
 C         3.229343        -0.132517         0.090025
 C         4.657070         0.003427         0.563531
 O         4.484982        -0.007593         1.998283
 C         3.052070        -0.208832         2.393753
 C         2.282877         0.387588         1.261085
 O         2.390557         0.730841        -0.804700
 H        -0.489359         1.147615         0.073085
 H        -0.526774        -0.445121        -1.069746
 H        -0.455024        -0.439985         0.850105
 H         2.262111        -2.117159         0.625014
 H         2.139185        -1.694653        -1.148105
 H         5.205580        -0.834963         0.129340
 H         4.985036         1.003976         0.273532
 H         2.939212        -1.333807         2.580638
 H         3.033268         0.503760         3.290418
 H         2.250608         1.489694         1.515918
