19
Iteration:   459charge 0 multiplicity 1
 C        -0.047806         0.052715        -0.016438
 C         1.440769        -0.129233         0.058944
 C         2.340943        -1.366514        -0.004703
 C         3.250290        -0.117383         0.165973
 C         4.642709         0.150432         0.657177
 O         4.375354        -0.371682         1.958222
 C         3.100892         0.239764         2.474401
 C         2.313136         0.545311         1.141133
 O         2.228377         0.473893        -1.027376
 H        -0.421961        -0.291289         0.943183
 H        -0.414619         1.108147        -0.052476
 H        -0.550687        -0.575882        -0.800394
 H         2.483650        -2.062891         0.819282
 H         2.354488        -1.688864        -1.067498
 H         5.425818        -0.419453         0.202091
 H         4.862429         1.278310         0.614388
 H         2.809923        -0.481995         3.218999
 H         3.427775         1.176937         3.037089
 H         2.291226         1.640563         1.020664
