19
Iteration:  1235charge 0 multiplicity 1
 C        -0.139312         0.089183        -0.002509
 C         1.361914        -0.136015         0.129117
 C         2.438036        -1.324649         0.163638
 C         3.194357         0.000907         0.063970
 C         4.674554         0.030404         0.601929
 O         4.414876        -0.316398         1.988200
 C         2.995643         0.129494         2.365192
 C         2.366600         0.576618         1.082983
 O         2.311093         0.475490        -1.017863
 H        -0.409937        -0.519162         0.794178
 H        -0.433874         1.233491         0.279297
 H        -0.577667        -0.348766        -0.916556
 H         2.689381        -1.895422         1.072611
 H         2.483299        -1.951615        -0.744927
 H         5.351047        -0.683437         0.175659
 H         5.023720         1.068553         0.472049
 H         2.531294        -0.633608         2.892196
 H         3.229878         0.932002         3.060015
 H         2.217714         1.687684         1.083906
