19
Iteration:  1925charge 0 multiplicity 1
 C        -0.043449         0.083605        -0.131291
 C         1.376179        -0.107241         0.025293
 C         2.112296        -1.391428         0.053416
 C         3.123359        -0.210139         0.197114
 C         4.549349        -0.140912         0.547327
 O         4.553156         0.173123         1.994575
 C         3.200005         0.040743         2.421590
 C         2.345250         0.472676         1.286125
 O         2.404709         0.542192        -0.974168
 H        -0.676715        -0.725895         0.394483
 H        -0.486810         0.892928         0.383232
 H        -0.352663         0.043982        -1.144176
 H         2.045909        -2.150209         0.865261
 H         2.263845        -1.976932        -0.861654
 H         5.070487        -0.901372         0.102172
 H         5.016651         0.779899         0.151619
 H         2.921229        -0.937294         2.986275
 H         3.107088         0.782430         3.309084
 H         2.241273         1.624814         1.243894
