19
Iteration:  2270
 C        -0.033230         0.098387        -0.182228
 C         1.408921        -0.092524         0.164472
 C         2.243502        -1.398769         0.261602
 C         3.160863        -0.066461         0.075107
 C         4.647325         0.061348         0.540590
 O         4.484871        -0.184068         1.923969
 C         3.089413         0.117813         2.453916
 C         2.311021         0.582380         1.193345
 O         2.338884         0.375775        -0.967176
 H        -0.813751        -0.039258         0.587696
 H        -0.279904         1.214882        -0.370166
 H        -0.334613        -0.514143        -1.030488
 H         2.326250        -2.005595         1.157145
 H         2.136059        -1.957619        -0.638637
 H         5.348614        -0.538315         0.049185
 H         4.907069         1.117161         0.157656
 H         2.653585        -0.716233         2.985627
 H         3.166095         0.946812         3.118686
 H         2.205622         1.624198         1.145493
