19
Iteration:   973charge 0 multiplicity 1
 C        -0.002909        -0.003497        -0.008575
 C         1.433170        -0.130388         0.153149
 C         2.391259        -1.388696         0.119355
 C         3.217263         0.043298         0.064499
 C         4.620139         0.040250         0.545623
 O         4.357871        -0.393804         1.930404
 C         3.041482         0.151289         2.407252
 C         2.286563         0.606331         1.227511
 O         2.292334         0.599703        -1.005632
 H        -0.562759         0.018644         0.884418
 H        -0.313347         1.036113        -0.612446
 H        -0.313757        -0.857163        -0.617218
 H         2.281158        -1.960269         1.026098
 H         2.643680        -1.825638        -0.853487
 H         5.225860        -0.773619         0.055692
 H         5.046138         1.065309         0.453057
 H         2.717990        -0.699811         3.115429
 H         3.251800         0.966642         3.129823
 H         2.196591         1.740818         1.065159
