19
Iteration:   529
 C        -0.073665         0.031181        -0.197101
 C         1.309742        -0.075853         0.173378
 C         2.163696        -1.372544         0.055660
 C         3.108816        -0.113599         0.132305
 C         4.611575        -0.070782         0.597530
 O         4.598168         0.214418         2.024322
 C         3.160258        -0.164079         2.409127
 C         2.370133         0.541868         1.236087
 O         2.320149         0.520918        -0.997779
 H        -0.677207        -0.608628         0.504964
 H        -0.479452         1.034499         0.136833
 H        -0.130059        -0.144753        -1.266760
 H         2.147049        -1.925984         0.998432
 H         2.118707        -1.852983        -0.906223
 H         5.124239        -1.111625         0.592175
 H         5.400665         0.684712         0.036892
 H         3.033130        -1.283487         2.583230
 H         2.982065         0.340165         3.452285
 H         2.407113         1.638405         1.112653
