19
Iteration:  4994
 C        -0.000500         0.034139        -0.044137
 C         1.438295        -0.112098         0.141422
 C         2.336336        -1.251552        -0.045200
 C         3.220451         0.073358         0.066056
 C         4.615933         0.200736         0.621366
 O         4.498973        -0.415747         1.942427
 C         3.031305        -0.120737         2.431779
 C         2.257799         0.454246         1.278625
 O         2.232306         0.671207        -0.959376
 H        -0.324709         0.969701        -0.501881
 H        -0.541111        -0.709596        -0.538007
 H        -0.490414        -0.154764         0.866193
 H         2.574785        -2.041930         0.679302
 H         2.320809        -1.577203        -1.138281
 H         5.351323        -0.328747        -0.000806
 H         4.891419         1.187079         0.781994
 H         2.705532        -1.155553         2.731461
 H         3.122050         0.626635         3.298366
 H         2.317628         1.591259         1.245009
