19
Iteration:   369
 C        -0.053460         0.056067        -0.106844
 C         1.391543        -0.127506         0.136487
 C         2.202076        -1.392312         0.065021
 C         3.203331        -0.133320         0.034046
 C         4.581435         0.050266         0.565455
 O         4.508336        -0.081647         2.049659
 C         3.129745         0.041112         2.439206
 C         2.411822         0.580115         1.192427
 O         2.267242         0.519926        -0.971614
 H        -0.738222        -0.542860         0.682300
 H        -0.375422         1.032884        -0.150797
 H        -0.128527        -0.442777        -1.029211
 H         2.306550        -1.816046         1.125921
 H         2.161723        -2.109993        -0.859871
 H         5.321818        -0.771754         0.243483
 H         4.943324         1.071673         0.299948
 H         2.688697        -0.948204         2.876624
 H         3.013084         0.821311         3.171126
 H         2.425853         1.637655         1.034865
