19
Iteration:  2861charge 0 multiplicity 1
 C        -0.126218         0.140599         0.052346
 C         1.373189        -0.106355         0.158964
 C         2.356220        -1.371652         0.043775
 C         3.310235        -0.123539         0.108401
 C         4.736099         0.047180         0.638830
 O         4.377645        -0.254344         2.003282
 C         2.995566         0.114382         2.355054
 C         2.394799         0.632662         1.045638
 O         2.251216         0.461228        -0.999395
 H        -0.459905         0.288409         1.146458
 H        -0.443856         1.002699        -0.500774
 H        -0.494599        -0.883310        -0.411494
 H         2.389687        -2.139942         0.954786
 H         2.395088        -1.896253        -0.949468
 H         5.477865        -0.653769         0.157150
 H         5.079625         1.046347         0.397464
 H         2.433177        -0.861715         2.640791
 H         3.073055         0.882639         3.175031
 H         2.431402         1.735262         1.041552
