19
Iteration:   168charge 0 multiplicity 1
 C        -0.052166         0.069243        -0.007820
 C         1.438462        -0.174982         0.182265
 C         2.346339        -1.404796         0.176649
 C         3.184332         0.027057         0.105634
 C         4.642991         0.110901         0.538930
 O         4.392160        -0.293600         1.903993
 C         3.027829         0.125279         2.380999
 C         2.274425         0.604886         1.151906
 O         2.370560         0.470057        -1.004452
 H        -0.492028        -0.485532         0.723548
 H        -0.315900         1.179412         0.035403
 H        -0.327219        -0.234977        -1.073752
 H         2.366981        -2.127463         1.049222
 H         2.370997        -1.988511        -0.773396
 H         5.229960        -0.728620         0.084848
 H         5.082649         1.088789         0.541596
 H         2.691148        -0.720163         3.002700
 H         3.194286         0.999588         3.077811
 H         2.073095         1.731147         1.143731
