19
Iteration:  3627charge 0 multiplicity 1
 C        -0.147687         0.115304        -0.034007
 C         1.386022        -0.105194        -0.000041
 C         2.192095        -1.393153         0.104247
 C         3.172109        -0.171363         0.142322
 C         4.641145        -0.077054         0.571334
 O         4.503213         0.125422         2.007719
 C         3.136054        -0.021088         2.347130
 C         2.345639         0.555573         1.212734
 O         2.395122         0.491849        -0.928118
 H        -0.369386         1.045349         0.459110
 H        -0.408648         0.139661        -1.078812
 H        -0.492138        -0.658012         0.519356
 H         1.930436        -2.051973         1.016174
 H         2.221904        -1.963515        -0.840007
 H         5.077724        -1.062852         0.367819
 H         5.139144         0.611861        -0.014221
 H         2.881354        -1.145525         2.304515
 H         2.934694         0.570644         3.297805
 H         2.436767         1.647411         1.124434
