19
Iteration:  3219charge 0 multiplicity 1
 C        -0.060806        -0.023954        -0.104353
 C         1.379412        -0.073716         0.251655
 C         2.211108        -1.321249         0.210816
 C         3.177430        -0.049919         0.106466
 C         4.660770        -0.047312         0.508649
 O         4.488486        -0.227270         1.947737
 C         3.099854         0.146314         2.415347
 C         2.333988         0.672987         1.199368
 O         2.353765         0.486969        -1.057961
 H        -0.550461        -0.929254         0.333715
 H        -0.530419         0.875363         0.250395
 H        -0.179364         0.096068        -1.236060
 H         2.299295        -2.068143         0.957533
 H         2.124842        -1.879289        -0.721598
 H         5.170353        -0.903609         0.308774
 H         5.176060         0.850009         0.184976
 H         2.486056        -0.735165         2.877365
 H         3.095419         0.948252         3.164634
 H         2.240170         1.786768         1.139331
