19
Iteration:  3014charge 0 multiplicity 1
 C        -0.046107         0.145856         0.046865
 C         1.412861        -0.050926         0.128767
 C         2.192832        -1.398954         0.106144
 C         3.259652        -0.211366         0.081594
 C         4.711090        -0.039042         0.552215
 O         4.462290         0.045219         2.009036
 C         2.963441        -0.012983         2.387538
 C         2.420970         0.581241         1.062083
 O         2.286919         0.452438        -0.984555
 H        -0.487665        -0.739811         0.497311
 H        -0.227174         1.093162         0.429430
 H        -0.340694         0.136522        -1.013759
 H         2.104453        -2.075789         1.010120
 H         1.985809        -2.042880        -0.808434
 H         5.325035        -0.963661         0.302962
 H         5.052586         0.887426         0.161369
 H         2.453860        -0.886205         2.793384
 H         2.955887         0.694004         3.228510
 H         2.640437         1.608654         1.174181
