19
Iteration:  3488
 C        -0.096512         0.037807         0.022663
 C         1.389381        -0.167598         0.108821
 C         2.265935        -1.301383         0.161014
 C         3.221481        -0.084661         0.088216
 C         4.673421        -0.073143         0.590931
 O         4.475188        -0.253485         2.029888
 C         3.074400         0.247991         2.475749
 C         2.316629         0.622738         1.036199
 O         2.305266         0.488213        -1.093569
 H        -0.745030        -0.822703         0.400761
 H        -0.296745         0.982177         0.519796
 H        -0.448149         0.068381        -1.092232
 H         2.397151        -1.707916         1.135072
 H         2.187937        -1.964166        -0.680964
 H         5.266399        -0.967002         0.251283
 H         5.255214         0.795308         0.323272
 H         2.742645        -0.503827         3.100670
 H         3.342932         1.133692         2.994188
 H         2.098377         1.678433         0.811939
