19
Iteration:  2064charge 0 multiplicity 1
 C        -0.127972        -0.040264         0.033701
 C         1.404618        -0.172182         0.124631
 C         2.384737        -1.302640         0.075727
 C         3.178946        -0.048864         0.049800
 C         4.655529        -0.086762         0.633561
 O         4.466281        -0.265775         2.016016
 C         2.988757         0.229123         2.399650
 C         2.367549         0.720439         1.081759
 O         2.279407         0.523427        -1.018330
 H        -0.504830        -0.513869         0.975425
 H        -0.288174         1.059123         0.073254
 H        -0.485645        -0.542156        -0.872159
 H         2.387471        -2.075830         0.876398
 H         2.585340        -1.646055        -0.948352
 H         5.184007        -1.000101         0.148240
 H         5.292410         0.758674         0.482938
 H         2.696883        -0.682625         2.876073
 H         3.082890         0.940959         3.258443
 H         2.313718         1.826593         0.929488
