19
Iteration:  4523charge 0 multiplicity 1
 C        -0.129901         0.070508        -0.056402
 C         1.371745        -0.142793         0.107859
 C         2.403201        -1.312012        -0.037787
 C         3.207755        -0.100717         0.097700
 C         4.599610         0.060819         0.497608
 O         4.461357        -0.158745         1.925094
 C         3.028052        -0.122449         2.366370
 C         2.308907         0.537875         1.269755
 O         2.387219         0.689500        -0.761918
 H        -0.389985         0.846589         0.605684
 H        -0.459961         0.385442        -1.047022
 H        -0.726067        -0.863034         0.141826
 H         2.308487        -2.072373         0.765517
 H         2.591329        -1.779397        -0.970220
 H         5.163943        -0.793403         0.069721
 H         5.134600         0.959969         0.324091
 H         2.792164        -1.202486         2.593344
 H         2.997915         0.421799         3.423180
 H         1.966727         1.552150         1.098551
