19
Iteration:  4654
 C        -0.081619         0.003410        -0.049067
 C         1.454667        -0.006559         0.072139
 C         2.305727        -1.299537        -0.093571
 C         3.198289        -0.089081         0.044077
 C         4.585620         0.078605         0.588612
 O         4.480486        -0.138670         1.992371
 C         3.050278        -0.268925         2.453392
 C         2.344808         0.448777         1.274046
 O         2.281090         0.760953        -0.892088
 H        -0.446445         0.810406        -0.679074
 H        -0.387234        -0.992391        -0.437001
 H        -0.414622         0.438301         0.903820
 H         2.329574        -1.956666         0.743126
 H         2.255794        -1.731183        -1.006431
 H         5.378706        -0.747595         0.303478
 H         5.011498         1.129085         0.379672
 H         2.862419        -1.292970         2.610139
 H         2.847258         0.278450         3.459763
 H         2.508111         1.551029         1.194917
