19
Iteration:   860
 C        -0.048717         0.107706        -0.173968
 C         1.422360        -0.114363         0.087411
 C         2.184791        -1.435206        -0.028212
 C         3.175549        -0.146125         0.142839
 C         4.573251        -0.133665         0.578489
 O         4.521171         0.247682         1.959186
 C         3.169217        -0.083744         2.473681
 C         2.372865         0.448489         1.287086
 O         2.253358         0.589600        -0.878217
 H        -0.717646        -0.648680         0.399954
 H        -0.306548         1.130297         0.003481
 H        -0.053319        -0.150056        -1.272446
 H         2.338135        -1.979517         0.924286
 H         2.047669        -1.896148        -0.998481
 H         4.923579        -1.106376         0.410852
 H         4.995079         0.744792         0.070389
 H         3.084009        -1.264158         2.594000
 H         3.013591         0.393518         3.446837
 H         2.515655         1.514438         1.274253
