19
Iteration:   554
 C        -0.151233         0.111013        -0.175119
 C         1.354976        -0.110511         0.053494
 C         2.225989        -1.450111        -0.046855
 C         3.207689        -0.211907         0.194179
 C         4.630503        -0.177529         0.533215
 O         4.456699         0.277111         1.921707
 C         3.178837         0.020339         2.492337
 C         2.387179         0.385675         1.254078
 O         2.341525         0.622999        -0.809551
 H        -0.701903        -0.465613         0.693931
 H        -0.458955         1.061767         0.013857
 H        -0.400159        -0.227501        -1.157917
 H         2.138270        -2.168148         0.777133
 H         2.258469        -1.833411        -1.093096
 H         5.144216        -1.246693         0.490630
 H         5.306287         0.582169         0.069069
 H         3.057957        -1.098644         2.838015
 H         3.059580         0.621884         3.305125
 H         2.243543         1.422115         1.160129
