19
Iteration:    21
 C        -0.056533         0.165635        -0.097769
 C         1.402592        -0.180093         0.139747
 C         2.096971        -1.523908        -0.058435
 C         3.196084        -0.180787         0.149210
 C         4.657408         0.163382         0.536826
 O         4.510289         0.046092         1.979310
 C         3.055599         0.099352         2.453228
 C         2.323220         0.416084         1.218255
 O         2.420026         0.432737        -0.886611
 H        -0.668554        -0.243501         0.765789
 H        -0.141560         1.179250        -0.096575
 H        -0.359786        -0.277045        -0.970936
 H         1.934740        -2.260168         0.750273
 H         2.042163        -1.850347        -1.070023
 H         5.388374        -0.561106         0.165744
 H         5.101208         1.197292         0.199476
 H         2.918001        -0.870553         2.974996
 H         2.973426         0.881253         3.203908
 H         2.252435         1.460575         1.057265
