19
Iteration:   403charge 0 multiplicity 1
 C        -0.089027        -0.134579        -0.013893
 C         1.452956        -0.005203         0.133417
 C         2.338100        -1.216359         0.129051
 C         3.231537         0.035975         0.091334
 C         4.654059        -0.049308         0.443495
 O         4.410533        -0.291259         1.961422
 C         2.913505         0.084331         2.399349
 C         2.302691         0.750788         1.230325
 O         2.392069         0.496906        -0.984733
 H        -0.514387        -0.504776         1.055959
 H        -0.640839         0.635234        -0.379418
 H        -0.259282        -0.950944        -0.676846
 H         2.413761        -1.807777         1.083513
 H         2.531775        -2.007727        -0.670980
 H         5.085663        -0.989203         0.047160
 H         5.385288         0.824074         0.216616
 H         2.525837        -0.852049         2.916205
 H         3.224239         0.823072         3.175808
 H         2.184638         1.792789         1.195233
