19
Iteration:  1192
 C        -0.087092         0.062450        -0.121298
 C         1.448871        -0.109925         0.199203
 C         2.296953        -1.405664         0.056287
 C         3.149276        -0.108206         0.024131
 C         4.576839         0.133456         0.610520
 O         4.472260        -0.308375         1.986623
 C         3.108193         0.173673         2.444060
 C         2.382433         0.544554         1.190453
 O         2.310215         0.503332        -0.935833
 H        -0.786586         0.026994         0.620620
 H        -0.314477         1.038267        -0.621863
 H        -0.440950        -0.696393        -0.802869
 H         2.331891        -2.164796         0.827563
 H         2.143563        -1.906060        -0.898020
 H         5.276707        -0.465145         0.058165
 H         4.818261         1.196971         0.582066
 H         2.727446        -0.537217         3.026226
 H         3.211666         1.096620         3.022746
 H         2.434859         1.632103         1.088224
