19
Iteration:  1479charge 0 multiplicity 1
 C        -0.048698        -0.007234        -0.141309
 C         1.410653        -0.076345         0.222752
 C         2.313656        -1.346269         0.271807
 C         3.215363        -0.081274         0.001839
 C         4.530760         0.080573         0.580368
 O         4.417892        -0.373998         1.901770
 C         3.079370         0.157111         2.480436
 C         2.393587         0.675661         1.180301
 O         2.309935         0.522261        -1.049879
 H        -0.613120        -0.692672         0.539169
 H        -0.324523         0.984299        -0.143102
 H        -0.188594        -0.357577        -1.152214
 H         2.483244        -1.904405         1.214521
 H         2.207962        -2.081718        -0.536463
 H         5.430615        -0.443618         0.151781
 H         4.760409         1.113036         0.458097
 H         2.635369        -0.801911         2.972346
 H         3.247670         1.052499         3.147412
 H         2.401791         1.761376         1.110629
