19
Iteration:  1872charge 0 multiplicity 1
 C         0.000399         0.196595         0.028623
 C         1.396649        -0.157221         0.107266
 C         2.213457        -1.392566         0.028397
 C         3.223810        -0.178294         0.062965
 C         4.611774        -0.098379         0.648112
 O         4.467832         0.210462         2.031951
 C         3.084144         0.014466         2.394075
 C         2.352934         0.498756         1.139844
 O         2.273203         0.422252        -1.019438
 H        -0.791526        -0.613596         0.342580
 H        -0.197020         0.939641         0.711705
 H        -0.284274         0.343198        -0.979532
 H         2.411891        -2.047437         0.854134
 H         2.261192        -1.827161        -0.953723
 H         4.986210        -1.154090         0.335558
 H         5.360424         0.604183         0.193834
 H         2.784140        -1.168648         2.428524
 H         3.052271         0.430265         3.466524
 H         2.385173         1.615924         1.040230
