19
Iteration:   508charge 0 multiplicity 1
 C        -0.053558         0.064860        -0.139360
 C         1.438958        -0.058379         0.141849
 C         2.275143        -1.353819         0.142494
 C         3.197213        -0.105055         0.056556
 C         4.628722        -0.047380         0.496508
 O         4.455249         0.053047         1.965507
 C         3.058922        -0.060998         2.355948
 C         2.319410         0.590664         1.271714
 O         2.311619         0.447461        -0.882722
 H        -0.724016        -0.654843         0.461405
 H        -0.476544         1.043590         0.085011
 H        -0.161707        -0.163860        -1.179514
 H         2.181779        -1.990891         1.032765
 H         2.212859        -1.778212        -0.857089
 H         5.376959        -0.908874         0.384283
 H         5.093141         1.014389         0.210511
 H         2.821574        -1.168862         2.526080
 H         3.047570         0.406465         3.381358
 H         2.405566         1.675798         1.275406
