19
Iteration:  4509
 C        -0.144873         0.034949        -0.047636
 C         1.390417        -0.119269         0.144715
 C         2.371529        -1.292591        -0.058873
 C         3.157270         0.055112         0.138476
 C         4.620444         0.044198         0.541666
 O         4.484713        -0.234429         1.979083
 C         3.074205        -0.103992         2.415659
 C         2.277024         0.498205         1.253580
 O         2.371451         0.632990        -0.929873
 H        -0.569148         0.775835         0.681731
 H        -0.332879         0.453205        -1.041592
 H        -0.641454        -0.949632         0.141099
 H         2.582798        -2.010310         0.664724
 H         2.258298        -1.635010        -1.022717
 H         5.312145        -0.727776         0.063754
 H         4.919902         1.138327         0.333338
 H         2.650739        -1.097177         2.591926
 H         3.097539         0.538639         3.339154
 H         2.497372         1.573470         1.364424
