19
Iteration:  4859
 C        -0.155569         0.165700        -0.090054
 C         1.400837        -0.140326         0.209153
 C         2.281833        -1.312261        -0.135863
 C         3.232325        -0.147775         0.118915
 C         4.703282         0.062037         0.480337
 O         4.468648         0.038246         2.033708
 C         3.071890        -0.268863         2.451309
 C         2.317826         0.435751         1.231581
 O         2.297955         0.644719        -0.871077
 H        -0.527028         1.017186         0.426867
 H        -0.363157         0.276718        -1.141978
 H        -0.619797        -0.745174         0.300591
 H         2.538619        -2.225264         0.555171
 H         2.236637        -1.549881        -1.189188
 H         5.406416        -0.683659         0.276674
 H         5.030225         1.015686         0.197572
 H         2.967012        -1.410192         2.431904
 H         2.968263         0.180855         3.452150
 H         2.291773         1.510005         1.461956
