19
Iteration:  1796charge 0 multiplicity 1
 C        -0.133421         0.026488        -0.208304
 C         1.354975        -0.052483         0.135901
 C         2.418597        -1.330073         0.226363
 C         3.210849        -0.043852         0.092308
 C         4.689775         0.039110         0.515874
 O         4.447380        -0.272991         1.982566
 C         3.105434         0.078920         2.414209
 C         2.344919         0.632381         1.176146
 O         2.217118         0.478139        -0.926212
 H        -0.787673         0.069932         0.785729
 H        -0.368914         0.907998        -0.738713
 H        -0.488867        -0.858985        -0.725600
 H         2.490830        -1.704265         1.224079
 H         2.233446        -1.950822        -0.649203
 H         5.333462        -0.896508         0.156468
 H         5.019654         1.062451         0.201968
 H         2.764055        -0.846225         2.697268
 H         3.136999         0.850712         3.221829
 H         2.563930         1.708505         1.246755
