19
Iteration:  1574
 C        -0.167688         0.102320        -0.049256
 C         1.338810        -0.049713         0.103033
 C         2.215635        -1.346262         0.039877
 C         3.182324        -0.137806         0.053686
 C         4.705828        -0.108335         0.667468
 O         4.550760         0.144196         2.124723
 C         3.122733        -0.075425         2.366171
 C         2.392672         0.526549         1.128860
 O         2.302797         0.469447        -1.014233
 H        -0.559776        -0.238461         0.883911
 H        -0.620675         1.163153        -0.387377
 H        -0.629777        -0.583928        -0.875872
 H         2.194555        -2.116043         0.793904
 H         2.158522        -1.751699        -0.962869
 H         5.298746        -1.020582         0.524969
 H         5.295621         0.728250         0.169069
 H         3.024946        -1.117525         2.531166
 H         2.899077         0.432463         3.260287
 H         2.227572         1.596056         1.132392
