19
Iteration:  1985
 C        -0.071912         0.056838        -0.085353
 C         1.448719        -0.118229         0.132267
 C         2.336997        -1.315243         0.190831
 C         3.197443        -0.032520         0.075067
 C         4.604114         0.059912         0.532034
 O         4.465365        -0.216885         1.926055
 C         3.002022         0.058270         2.435438
 C         2.329818         0.623782         1.236174
 O         2.283067         0.431790        -1.010782
 H        -0.541368         0.123368         0.856564
 H        -0.041480         1.089041        -0.656824
 H        -0.481267        -0.831542        -0.677088
 H         2.461792        -1.715633         1.184469
 H         2.351790        -1.992269        -0.679054
 H         5.168229        -0.769708        -0.077800
 H         5.060523         1.043754         0.436216
 H         2.702521        -0.961656         2.858138
 H         3.366996         0.731534         3.205894
 H         2.231891         1.681701         1.255732
