19
Iteration:  4272
 C        -0.065258         0.089243        -0.092149
 C         1.357133        -0.126789         0.175004
 C         2.326499        -1.305593        -0.102758
 C         3.141896        -0.042655         0.066590
 C         4.591334         0.002969         0.557796
 O         4.461221        -0.024387         2.033870
 C         3.092376        -0.209102         2.415865
 C         2.322592         0.475999         1.295302
 O         2.392790         0.674617        -0.913358
 H        -0.534247         0.858830         0.502562
 H        -0.231055         0.133193        -1.202370
 H        -0.478879        -0.980398         0.337935
 H         2.164038        -2.123542         0.691075
 H         2.115868        -1.691843        -1.064138
 H         4.970930        -0.956868         0.176848
 H         5.133434         1.013231         0.287443
 H         2.837856        -1.284993         2.373415
 H         3.053922         0.272846         3.346111
 H         2.532684         1.595279         1.392356
