19
Iteration:  1712charge 0 multiplicity 1
 C        -0.105785         0.022988         0.025332
 C         1.417188        -0.093218         0.055582
 C         2.384957        -1.337514         0.119866
 C         3.234357        -0.006230         0.040291
 C         4.697929        -0.037152         0.621604
 O         4.435342        -0.245784         2.039134
 C         3.019367         0.132538         2.349546
 C         2.316415         0.614548         1.117182
 O         2.261660         0.511683        -1.014270
 H        -0.507627        -0.323673         1.039278
 H        -0.320497         1.092563        -0.073180
 H        -0.467348        -0.659462        -0.793412
 H         2.329183        -2.005923         1.022292
 H         2.317378        -2.023906        -0.772099
 H         5.451514        -0.785928         0.235367
 H         5.151216         0.938822         0.330928
 H         2.614391        -0.868659         2.867489
 H         3.004570         0.923900         3.132837
 H         2.126342         1.740514         1.206102
