19
Iteration:  4934
 C        -0.049261        -0.012539        -0.080324
 C         1.442519        -0.124801         0.118178
 C         2.235012        -1.292334        -0.141778
 C         3.175105        -0.005435         0.075878
 C         4.608434         0.043651         0.565460
 O         4.476240        -0.147210         2.042689
 C         3.115906        -0.187985         2.389167
 C         2.348460         0.499651         1.311866
 O         2.263636         0.732248        -0.867499
 H        -0.267274         0.880496        -0.665425
 H        -0.325616        -0.934586        -0.651526
 H        -0.476655         0.233986         0.954094
 H         2.145769        -2.165126         0.566816
 H         2.374444        -1.536062        -1.165038
 H         5.342956        -0.604819         0.055777
 H         4.916732         1.181930         0.473520
 H         2.811053        -1.248907         2.423184
 H         3.145168         0.095760         3.409638
 H         2.403612         1.537257         1.492227
