19
Iteration:  2582charge 0 multiplicity 1
 C        -0.075432         0.112442        -0.029986
 C         1.370650        -0.121602         0.263425
 C         2.299841        -1.430274         0.186028
 C         3.136617         0.001288         0.104345
 C         4.666008         0.099532         0.572384
 O         4.388534        -0.320706         1.920446
 C         3.088389         0.095478         2.408426
 C         2.291178         0.638371         1.181292
 O         2.466351         0.450352        -1.102998
 H        -0.582064        -0.207992         0.894688
 H        -0.249907         1.190457        -0.375787
 H        -0.414841        -0.578986        -0.851295
 H         2.317583        -2.074550         1.100690
 H         2.209856        -1.882629        -0.796891
 H         5.198903        -0.749722         0.024565
 H         4.976594         1.148889         0.314018
 H         2.559319        -0.642107         2.938694
 H         3.165192         1.054549         3.065792
 H         2.242760         1.750179         0.925310
