19
Iteration:  2942
 C        -0.059064         0.028696        -0.174713
 C         1.408056        -0.085911         0.131625
 C         2.182274        -1.423113         0.128583
 C         3.138752        -0.121224         0.055835
 C         4.527734        -0.042785         0.527024
 O         4.490920        -0.179251         2.004078
 C         3.195333         0.162980         2.518602
 C         2.452302         0.651739         1.210376
 O         2.254639         0.511875        -0.963950
 H        -0.587864        -0.760657         0.312892
 H        -0.063922         1.218818        -0.024674
 H        -0.107849        -0.106933        -1.212401
 H         2.202409        -2.095542         0.928771
 H         2.228075        -2.017443        -0.786726
 H         5.104273        -0.879812         0.223524
 H         4.848405         1.071416         0.240216
 H         2.920656        -0.686080         3.107139
 H         3.183995         0.957873         3.271060
 H         2.618675         1.763858         1.084085
