19
Iteration:  3637charge 0 multiplicity 1
 C        -0.071314         0.077121        -0.027492
 C         1.364923        -0.064106         0.145122
 C         2.162513        -1.348788         0.038749
 C         3.177984        -0.161234         0.162516
 C         4.623235        -0.130076         0.545969
 O         4.491468         0.171721         1.965132
 C         3.087758        -0.066252         2.344394
 C         2.359527         0.556718         1.171329
 O         2.434911         0.487384        -0.966491
 H        -0.413235         1.063404         0.229521
 H        -0.538219        -0.148162        -1.020727
 H        -0.611116        -0.553469         0.575151
 H         1.873172        -2.000262         0.994590
 H         2.273336        -1.930632        -0.880933
 H         5.179352        -1.038588         0.517948
 H         5.188987         0.669250         0.201184
 H         2.825764        -1.143127         2.747685
 H         3.075466         0.367153         3.401115
 H         2.300441         1.655820         1.236402
