19
Iteration:  1248charge 0 multiplicity 1
 C        -0.046177        -0.020792         0.030175
 C         1.422657        -0.111317         0.209544
 C         2.342070        -1.294273         0.134174
 C         3.253367        -0.061187        -0.014812
 C         4.645259         0.001126         0.587831
 O         4.386229        -0.265798         2.024674
 C         3.044332         0.070413         2.388457
 C         2.372385         0.746442         1.108370
 O         2.257185         0.481187        -1.049914
 H        -0.678124        -0.640516         0.614277
 H        -0.409734         0.999184         0.254105
 H        -0.306799        -0.145947        -1.046075
 H         2.416383        -1.867124         1.033673
 H         2.291512        -1.859250        -0.801248
 H         5.386279        -0.774870         0.303798
 H         5.134821         0.960448         0.504210
 H         2.551014        -0.784483         2.630849
 H         2.966668         0.725690         3.244068
 H         2.369951         1.806340         0.890848
