19
Iteration:  4050charge 0 multiplicity 1
 C        -0.074304         0.166456        -0.065317
 C         1.410010        -0.164065         0.107479
 C         2.336045        -1.407234         0.118202
 C         3.155216        -0.071799         0.123851
 C         4.635118         0.033973         0.532053
 O         4.457525        -0.096251         1.963595
 C         3.022467        -0.070970         2.363073
 C         2.333748         0.507480         1.215093
 O         2.321828         0.609332        -0.973234
 H        -0.429357        -0.284005        -1.048136
 H        -0.545868        -0.393725         0.835972
 H        -0.066848         1.195261         0.111264
 H         2.226995        -1.881403         1.092258
 H         2.468072        -2.161993        -0.721524
 H         5.319457        -0.808635         0.201215
 H         5.257242         0.884368         0.262938
 H         2.743349        -0.997248         2.807304
 H         2.986240         0.542797         3.251941
 H         2.173917         1.609289         1.175142
