19
Iteration:  3598charge 0 multiplicity 1
 C        -0.078416         0.190784        -0.084903
 C         1.389496        -0.156354         0.200733
 C         2.269494        -1.385508         0.075400
 C         3.211355        -0.170924         0.076844
 C         4.633468        -0.020486         0.531922
 O         4.457591         0.007514         2.007980
 C         3.123747         0.065044         2.426399
 C         2.379187         0.489136         1.226972
 O         2.264146         0.440688        -0.980405
 H        -0.478439         1.081049         0.561233
 H         0.032408         0.588446        -1.100576
 H        -0.842380        -0.805621        -0.189288
 H         2.093932        -2.079616         0.854712
 H         2.300906        -1.957053        -0.887660
 H         5.294165        -0.954265         0.328723
 H         5.098501         0.954557        -0.004624
 H         2.864808        -0.835804         2.902190
 H         3.024831         0.931455         3.113780
 H         2.347894         1.598706         1.096940
