19
Iteration:  2977
 C        -0.139373         0.141569        -0.023825
 C         1.368745        -0.152069         0.119984
 C         2.228703        -1.393027         0.149817
 C         3.201500        -0.095969         0.114516
 C         4.669242        -0.046023         0.518736
 O         4.521640        -0.063706         1.978424
 C         3.012207         0.026138         2.416732
 C         2.332256         0.654200         1.149609
 O         2.404047         0.425232        -0.991353
 H        -0.904872        -0.575445         0.341265
 H        -0.460303         1.001813         0.608261
 H        -0.376357         0.359211        -1.101421
 H         2.190866        -2.017160         1.019063
 H         2.322228        -1.858015        -0.793328
 H         5.232002        -1.009236         0.219194
 H         5.429142         0.790005         0.215357
 H         2.777255        -0.866684         2.911875
 H         3.100574         0.875259         3.091702
 H         2.227929         1.730764         0.899315
