19
Iteration:   688
 C         0.002305        -0.006832        -0.120157
 C         1.442947        -0.191819         0.123807
 C         2.327722        -1.307061         0.069837
 C         3.207898        -0.017269         0.090864
 C         4.637871         0.052827         0.488812
 O         4.357185        -0.421058         1.962945
 C         3.150885         0.278218         2.492270
 C         2.313910         0.609297         1.234851
 O         2.181246         0.529630        -0.945359
 H        -0.376193        -0.593820         0.583964
 H        -0.472819         1.068282        -0.105768
 H        -0.339176        -0.511309        -1.080391
 H         2.425005        -1.788694         1.069084
 H         2.631320        -1.867580        -0.818725
 H         5.476638        -0.696116         0.215453
 H         5.206098         0.958492         0.493035
 H         2.762228        -0.409120         3.231357
 H         3.461643         1.200570         3.089518
 H         2.022123         1.718246         1.027309
