19
Iteration:    13
 C        -0.049558         0.117798        -0.059733
 C         1.390751        -0.179318         0.123893
 C         2.156525        -1.436475        -0.030581
 C         3.229993        -0.118871         0.150334
 C         4.647486         0.169559         0.548595
 O         4.482875        -0.013891         1.960920
 C         3.050926         0.082487         2.431330
 C         2.317794         0.453817         1.195571
 O         2.393634         0.410237        -0.865437
 H        -0.634338        -0.314856         0.659490
 H        -0.259236         1.282087        -0.170877
 H        -0.291896        -0.426256        -1.074936
 H         2.031127        -2.052090         0.854132
 H         1.997562        -1.957279        -1.010502
 H         5.197179        -0.707753         0.202458
 H         5.195502         1.012922         0.195822
 H         2.755033        -0.833337         2.908234
 H         3.095800         0.866172         3.203404
 H         2.390633         1.554203         0.949871
