19
Iteration:  2040
 C        -0.051151        -0.043414         0.128426
 C         1.491505        -0.030452         0.076644
 C         2.338520        -1.312527         0.046244
 C         3.303163        -0.136800        -0.001796
 C         4.679054         0.043682         0.617487
 O         4.280979        -0.291159         2.053009
 C         3.025790         0.186541         2.412360
 C         2.397318         0.606761         1.031872
 O         2.213361         0.526086        -1.040102
 H        -0.220309        -0.165629         1.146202
 H        -0.463891         0.981114        -0.209114
 H        -0.302770        -0.975711        -0.410227
 H         2.281725        -1.938119         0.936354
 H         2.346277        -1.833381        -0.920195
 H         5.358513        -0.803545         0.249867
 H         5.210794         0.941836         0.532115
 H         2.565334        -0.592412         3.159033
 H         3.145929         1.030674         3.137688
 H         2.375629         1.662597         0.980164
