19
Iteration:  2854charge 0 multiplicity 1
 C        -0.130901         0.087243         0.058890
 C         1.359250        -0.114000         0.077199
 C         2.319680        -1.366814         0.034513
 C         3.267047        -0.127621         0.095111
 C         4.740714         0.051000         0.622516
 O         4.417454        -0.265011         2.040068
 C         3.004913         0.132083         2.357305
 C         2.431621         0.625325         1.013865
 O         2.264920         0.480602        -0.950699
 H        -0.541664         0.211179         1.026523
 H        -0.461436         1.081822        -0.392908
 H        -0.792081        -0.653555        -0.276823
 H         2.446085        -1.910319         0.910030
 H         2.375024        -1.979393        -0.863544
 H         5.439188        -0.691347         0.357707
 H         5.049557         1.189005         0.516395
 H         2.594505        -0.730042         2.703533
 H         2.932909         0.716749         3.244043
 H         2.556824         1.696903         0.780918
