19
Iteration:  3104
 C        -0.093122         0.070618        -0.151843
 C         1.376146         0.010710         0.167065
 C         2.235822        -1.324360         0.141171
 C         3.157846        -0.104157         0.076349
 C         4.614860         0.023544         0.465529
 O         4.520994        -0.098655         1.984673
 C         3.083152        -0.042567         2.504189
 C         2.426074         0.607694         1.228709
 O         2.315386         0.428021        -0.975050
 H        -0.720431         0.224534         0.675648
 H        -0.276606         0.850263        -0.949765
 H        -0.471557        -0.752354        -0.632377
 H         2.077164        -2.010369         1.023313
 H         2.111605        -2.017218        -0.757622
 H         5.294288        -0.828963         0.233461
 H         5.010487         0.999360         0.227851
 H         2.684880        -1.038980         2.868836
 H         3.329589         0.561035         3.420048
 H         2.397379         1.682673         1.115504
