19
Iteration:  1982charge 0 multiplicity 1
 C        -0.030028         0.063062        -0.108223
 C         1.436852        -0.118670         0.134886
 C         2.333677        -1.324745         0.189908
 C         3.200714        -0.059922         0.053101
 C         4.602246         0.058966         0.510865
 O         4.482090        -0.208553         1.954513
 C         3.024667         0.050853         2.440598
 C         2.322811         0.633486         1.240233
 O         2.254867         0.449607        -0.997464
 H        -0.597500         0.102399         0.836924
 H        -0.103499         0.977865        -0.654598
 H        -0.485666        -0.712276        -0.730055
 H         2.427198        -1.732934         1.176219
 H         2.326832        -2.061881        -0.600487
 H         5.057170        -0.718102        -0.012151
 H         5.088908         1.016644         0.479734
 H         2.735966        -0.978819         2.813165
 H         3.338214         0.734290         3.226004
 H         2.152993         1.711198         1.164815
