19
Iteration:   849charge 0 multiplicity 1
 C        -0.049862         0.142407        -0.247079
 C         1.334448        -0.101221         0.202931
 C         2.199048        -1.397701         0.008218
 C         3.122668        -0.242501         0.018090
 C         4.636987        -0.081205         0.574092
 O         4.497185         0.304759         1.945943
 C         3.184971        -0.125943         2.483787
 C         2.354542         0.393924         1.300125
 O         2.313789         0.590871        -0.841857
 H        -0.726933        -0.517763         0.462108
 H        -0.374830         1.136176        -0.086006
 H        -0.317060        -0.111137        -1.304758
 H         2.176500        -2.200358         0.791083
 H         2.052449        -1.944316        -0.922283
 H         5.229793        -0.963330         0.549127
 H         5.348039         0.577890         0.063476
 H         3.193287        -1.305374         2.619835
 H         3.025392         0.351558         3.462180
 H         2.447625         1.447950         1.175105
