19
Iteration:  3586
 C        -0.006295         0.178842        -0.101692
 C         1.385862        -0.170374         0.213932
 C         2.228056        -1.461901         0.086610
 C         3.172120        -0.117394         0.091132
 C         4.606946         0.007194         0.534427
 O         4.480315        -0.077506         1.943991
 C         3.105187         0.154617         2.423087
 C         2.329865         0.537312         1.152247
 O         2.310009         0.414169        -0.886818
 H        -0.542001         0.921012         0.633154
 H         0.041056         0.695842        -1.058899
 H        -0.814966        -0.736297        -0.275465
 H         2.455762        -2.181261         0.843671
 H         2.074979        -1.766212        -0.973507
 H         5.338487        -0.851946         0.176123
 H         5.150144         1.050380         0.400755
 H         2.729853        -0.776420         2.831633
 H         3.146093         0.915162         3.255062
 H         2.338677         1.632647         1.012046
