19
Iteration:  2587
 C        -0.061466         0.112747        -0.094492
 C         1.362836        -0.166244         0.279591
 C         2.289531        -1.350214         0.220708
 C         3.129550        -0.006864         0.078826
 C         4.604945         0.098674         0.550468
 O         4.406891        -0.314732         1.945946
 C         3.079835         0.117018         2.409970
 C         2.343528         0.599744         1.182631
 O         2.437772         0.458143        -1.103633
 H        -0.446603        -0.129354         0.914602
 H        -0.101382         1.090936        -0.493907
 H        -0.496845        -0.559927        -0.811266
 H         2.316277        -1.955862         1.129695
 H         2.148473        -1.883623        -0.756900
 H         5.213804        -0.651854         0.048514
 H         5.147875         1.032578         0.348176
 H         2.705113        -0.856361         2.955203
 H         3.237562         0.930657         3.043266
 H         2.200911         1.657688         1.161395
