19
Iteration:  3643charge 0 multiplicity 1
 C        -0.051584         0.078251        -0.032349
 C         1.387148        -0.039768         0.215412
 C         2.142620        -1.323062         0.037745
 C         3.189288        -0.148442         0.106092
 C         4.615268        -0.175056         0.541654
 O         4.479966         0.194415         1.942195
 C         3.040710        -0.095367         2.441019
 C         2.346041         0.533650         1.180251
 O         2.446752         0.486769        -0.993191
 H        -0.442856         1.128507         0.000625
 H        -0.444982        -0.381257        -0.976507
 H        -0.706590        -0.573362         0.745504
 H         2.179779        -2.030004         0.817194
 H         2.156687        -1.835272        -0.927254
 H         5.257024        -1.103184         0.435601
 H         5.230862         0.781807         0.249875
 H         2.927461        -1.120653         2.664894
 H         3.058919         0.481672         3.340008
 H         2.350948         1.637989         1.138251
