19
Iteration:  4203
 C        -0.022264         0.036628        -0.091019
 C         1.432489        -0.087174         0.205836
 C         2.200345        -1.293025        -0.067976
 C         3.235928        -0.048354         0.118374
 C         4.613714         0.144267         0.536904
 O         4.442720        -0.220121         1.946376
 C         3.018269        -0.096943         2.517942
 C         2.325262         0.473858         1.286092
 O         2.376750         0.606061        -0.980573
 H        -0.508560         0.176190         0.934778
 H        -0.325274         0.892893        -0.651222
 H        -0.455952        -0.873470        -0.461761
 H         2.337879        -2.177929         0.597749
 H         2.471646        -1.588044        -1.138607
 H         5.256670        -0.719417         0.087080
 H         4.991699         1.188940         0.500743
 H         2.702529        -1.074597         2.729952
 H         3.056547         0.733143         3.322372
 H         2.142702         1.551542         1.105862
