19
Iteration:  2007charge 0 multiplicity 1
 C        -0.132789         0.030097         0.078569
 C         1.381809        -0.097609         0.162801
 C         2.376020        -1.339827         0.141805
 C         3.236417        -0.075780         0.059248
 C         4.626509         0.153227         0.511331
 O         4.352362        -0.340177         1.993096
 C         3.051805         0.110477         2.356999
 C         2.305319         0.703729         1.108299
 O         2.453000         0.444776        -1.009841
 H        -0.514119         0.110690         1.057275
 H        -0.570834         0.916090        -0.583079
 H        -0.622384        -0.922503        -0.330812
 H         2.331301        -2.022490         0.995915
 H         2.443011        -1.854179        -0.830991
 H         5.273542        -0.680727         0.039306
 H         5.058873         1.103512         0.639586
 H         2.628669        -0.892014         2.720559
 H         3.241739         0.860275         3.161149
 H         2.131342         1.725541         0.918925
