19
Iteration:  4735
 C        -0.102102        -0.016286        -0.053915
 C         1.437915        -0.140617         0.215587
 C         2.352441        -1.267414        -0.045494
 C         3.163445         0.019197         0.043179
 C         4.627617         0.129097         0.629767
 O         4.460137        -0.400958         1.869577
 C         3.063097        -0.045955         2.440166
 C         2.351341         0.557522         1.252695
 O         2.310499         0.685935        -0.902768
 H        -0.339618         1.069540         0.020088
 H        -0.358963        -0.315549        -1.081498
 H        -0.724002        -0.709526         0.499400
 H         2.576951        -1.881927         0.847641
 H         2.284505        -1.761293        -1.094134
 H         5.461958        -0.379187         0.185966
 H         4.836737         1.213287         0.591341
 H         2.419550        -0.980118         2.748257
 H         3.173866         0.617384         3.296224
 H         2.041469         1.572750         1.285687
