19
Iteration:  1384
 C        -0.114353         0.137314         0.002136
 C         1.461326        -0.087768         0.074941
 C         2.271553        -1.419903         0.061017
 C         3.179848        -0.174607         0.113226
 C         4.532891        -0.028557         0.470126
 O         4.448082         0.157349         2.036840
 C         3.082148        -0.093539         2.427264
 C         2.317577         0.548759         1.199662
 O         2.446907         0.456195        -0.962782
 H        -0.547520        -0.257108         1.001222
 H        -0.142029         1.202058        -0.230855
 H        -0.567182        -0.383076        -0.839977
 H         1.982577        -2.239257         0.798078
 H         2.226320        -1.722920        -0.999822
 H         5.113388        -0.945049         0.250777
 H         5.224101         0.811598         0.197975
 H         2.802679        -1.102574         2.498753
 H         2.928957         0.413493         3.394383
 H         2.316772         1.669169         1.118173
