19
Iteration:  3165charge 0 multiplicity 1
 C        -0.028975         0.108921         0.050543
 C         1.463188        -0.086523         0.170832
 C         2.298475        -1.372013         0.027728
 C         3.235405        -0.080019         0.013780
 C         4.645915         0.003198         0.646446
 O         4.395282        -0.208053         1.980153
 C         3.065947         0.145514         2.423617
 C         2.366716         0.598309         1.082565
 O         2.230896         0.406245        -0.991705
 H        -0.541930        -0.442514         0.905385
 H        -0.273959         1.130379         0.304957
 H        -0.300757        -0.242260        -1.040850
 H         2.265076        -1.979813         0.888585
 H         2.236203        -1.791313        -0.985315
 H         5.395106        -0.769532         0.376962
 H         5.181117         0.939366         0.402490
 H         2.460995        -0.666396         2.842927
 H         3.134125         0.972791         3.097298
 H         2.287331         1.696962         0.955122
