19
Iteration:  4386
 C        -0.100690         0.049871        -0.054665
 C         1.415595        -0.041470         0.143258
 C         2.302536        -1.283775        -0.087425
 C         3.168437        -0.011604         0.068979
 C         4.603831         0.161342         0.601760
 O         4.501083        -0.267163         1.976717
 C         3.087909        -0.183441         2.435490
 C         2.326098         0.483801         1.257818
 O         2.352923         0.650013        -0.910285
 H        -0.359788         0.784225        -0.906007
 H        -0.376196        -0.893676        -0.642369
 H        -0.714723        -0.065612         0.838050
 H         2.265598        -2.002889         0.660631
 H         2.136204        -1.711747        -1.120727
 H         5.344313        -0.530301         0.194620
 H         5.022706         1.180347         0.729658
 H         2.616930        -1.171236         2.606985
 H         3.014269         0.466060         3.347398
 H         2.172694         1.561339         1.400799
