19
Iteration:  2365charge 0 multiplicity 1
 C        -0.077007        -0.041635         0.076938
 C         1.390568        -0.033695         0.055043
 C         2.222642        -1.272158         0.108258
 C         3.248802        -0.145588         0.062131
 C         4.698626        -0.235320         0.611137
 O         4.452505        -0.000835         2.090302
 C         3.044420         0.149425         2.374698
 C         2.452239         0.592735         1.057757
 O         2.244539         0.535471        -1.079017
 H        -0.589781        -0.768054         0.667876
 H        -0.730424         0.916556         0.283358
 H        -0.354456        -0.310885        -1.011068
 H         2.128508        -1.981869         1.006630
 H         2.281705        -1.850773        -0.846219
 H         5.268417        -1.276625         0.583024
 H         5.394997         0.576553         0.428023
 H         2.651388        -0.835987         2.852005
 H         2.988136         0.921139         3.193998
 H         2.470935         1.735108         1.056210
