19
Iteration:  3975
 C        -0.081267         0.099059        -0.068713
 C         1.396785         0.001088        -0.017964
 C         2.313290        -1.364840         0.096754
 C         3.169835        -0.064816         0.134828
 C         4.583754        -0.092849         0.556950
 O         4.460365        -0.026858         1.950398
 C         3.101859         0.026298         2.508780
 C         2.326299         0.472220         1.225980
 O         2.284175         0.518299        -0.956146
 H        -0.234204         0.573605        -1.114392
 H        -0.353826        -0.994592         0.048600
 H        -0.440549         0.765158         0.646730
 H         2.375145        -1.931639         0.944066
 H         2.511437        -1.870383        -0.874012
 H         5.071315        -1.037813         0.247043
 H         5.227161         0.689279         0.171649
 H         2.883004        -1.189202         2.695996
 H         3.326484         0.472150         3.438357
 H         2.412126         1.590734         1.199946
