19
Iteration:   383
 C        -0.111337        -0.098228        -0.091814
 C         1.388942        -0.036792         0.125544
 C         2.275740        -1.320902         0.192704
 C         3.163353        -0.064183         0.134350
 C         4.625342        -0.025920         0.578678
 O         4.472147        -0.164540         1.958909
 C         3.079501         0.068508         2.374684
 C         2.371718         0.640026         1.143094
 O         2.359377         0.555581        -0.986272
 H        -0.548640        -0.450875         0.819130
 H        -0.502579         0.916300        -0.195745
 H        -0.444903        -0.720449        -0.945252
 H         2.115742        -1.978941         1.019229
 H         2.287428        -1.810742        -0.803899
 H         5.291293        -0.732730         0.177093
 H         5.168088         0.943297         0.279409
 H         2.654623        -0.914495         2.644424
 H         3.122904         0.667273         3.364016
 H         2.459510         1.713411         1.142912
