19
Iteration:  1454charge 0 multiplicity 1
 C        -0.100798        -0.086404        -0.057583
 C         1.401694        -0.043930         0.149929
 C         2.274959        -1.356040         0.150299
 C         3.206336        -0.062035         0.155708
 C         4.613258         0.001282         0.513964
 O         4.419230        -0.294930         1.923116
 C         3.073951         0.207836         2.387993
 C         2.309694         0.658485         1.195484
 O         2.417458         0.545618        -0.955929
 H        -0.532313        -0.851922         0.421313
 H        -0.481868         0.946924         0.192259
 H        -0.292118        -0.231255        -1.154875
 H         2.292864        -2.032555         0.999873
 H         2.253778        -2.023073        -0.704430
 H         5.214320        -0.840445         0.236647
 H         5.188005         0.871262         0.180714
 H         2.639469        -0.703811         2.882535
 H         3.113205         1.120782         2.968050
 H         2.294939         1.736948         1.106325
