19
Iteration:  3099charge 0 multiplicity 1
 C        -0.104765         0.085736        -0.175592
 C         1.313333        -0.031889         0.205761
 C         2.237095        -1.304808         0.152908
 C         3.191669        -0.160866         0.033735
 C         4.578371         0.014850         0.509152
 O         4.563907        -0.101454         1.985476
 C         3.069502        -0.028054         2.500040
 C         2.437848         0.615836         1.218452
 O         2.313829         0.462681        -0.965411
 H        -0.809319         0.357999         0.693743
 H        -0.275718         0.850327        -0.903547
 H        -0.363145        -0.927739        -0.761236
 H         2.239697        -1.972939         1.005942
 H         2.171660        -1.939855        -0.710816
 H         5.284101        -0.853012         0.267297
 H         5.034058         0.989331         0.094855
 H         2.804319        -1.053017         2.677428
 H         3.195077         0.586400         3.366957
 H         2.425791         1.730634         1.170173
