19
Iteration:  1878
 C        -0.011424         0.166068         0.028847
 C         1.394174        -0.152548         0.187836
 C         2.271688        -1.370270        -0.000229
 C         3.203247        -0.140251         0.054787
 C         4.608121        -0.127804         0.685858
 O         4.454429         0.220572         2.007894
 C         3.047514        -0.029723         2.351820
 C         2.389614         0.529182         1.125352
 O         2.257227         0.408363        -1.017094
 H        -0.796723        -0.480796         0.249925
 H        -0.303458         1.070052         0.723781
 H        -0.152114         0.437517        -1.074183
 H         2.238302        -2.175431         0.804626
 H         2.162518        -1.896341        -0.987432
 H         5.156334        -1.120692         0.687562
 H         5.243889         0.494197         0.065690
 H         3.108289        -1.041700         2.605347
 H         3.061392         0.371631         3.339959
 H         2.480873         1.627518         1.071443
