19
Iteration:  3863
 C         0.022982         0.103384        -0.048923
 C         1.458840        -0.070928         0.143848
 C         2.414290        -1.339701         0.059963
 C         3.181437        -0.036092         0.049515
 C         4.547944         0.070958         0.547310
 O         4.424050        -0.211072         1.957873
 C         2.977465        -0.088546         2.435813
 C         2.383154         0.598770         1.200302
 O         2.261573         0.504853        -0.908923
 H        -0.552321        -0.703534        -0.410391
 H        -0.680512         0.309237         0.798980
 H        -0.122885         0.941956        -0.814406
 H         2.536299        -1.993266         0.908191
 H         2.310836        -1.863733        -0.819787
 H         5.212901        -0.664998         0.085080
 H         4.975541         0.968823         0.245357
 H         2.486266        -1.082408         2.787705
 H         2.917373         0.651900         3.248909
 H         2.537859         1.714191         1.087458
