19
Iteration:  4564charge 0 multiplicity 1
 C        -0.168005         0.098725        -0.099205
 C         1.340079        -0.047841         0.157303
 C         2.253418        -1.352447        -0.157156
 C         3.196777        -0.061435         0.069925
 C         4.639269         0.045146         0.604263
 O         4.533565        -0.004422         2.082249
 C         3.151020        -0.254739         2.434489
 C         2.382211         0.446549         1.226256
 O         2.283384         0.644468        -0.901882
 H        -0.471289         1.148352        -0.024306
 H        -0.316912        -0.354040        -1.091939
 H        -0.812950        -0.485388         0.644007
 H         2.220806        -2.203681         0.492356
 H         2.353462        -1.580585        -1.142232
 H         5.453654        -0.724319         0.392746
 H         4.994334         1.051421         0.135643
 H         2.850608        -1.282754         2.436280
 H         3.056112         0.019883         3.498364
 H         2.489016         1.528993         1.500830
