19
Iteration:  3749charge 0 multiplicity 1
 C        -0.122016         0.109564        -0.099259
 C         1.421029        -0.074973         0.057456
 C         2.260607        -1.340293         0.166923
 C         3.182259        -0.039721         0.153518
 C         4.593934         0.122167         0.533802
 O         4.493742        -0.258435         1.943607
 C         3.071060         0.011786         2.396395
 C         2.392953         0.585420         1.228570
 O         2.335155         0.465050        -0.965406
 H        -0.452742         0.254050        -1.139715
 H        -0.380739        -0.890683         0.120191
 H        -0.383391         0.830155         0.617824
 H         2.185040        -2.013119         1.035244
 H         2.224381        -1.966773        -0.816840
 H         5.353363        -0.551884         0.201533
 H         4.949349         1.084249         0.396927
 H         2.619907        -1.011659         2.787307
 H         3.092660         0.652750         3.350360
 H         2.359090         1.652864         1.096530
