19
Iteration:  2492
 C        -0.041181         0.041643        -0.072013
 C         1.419321        -0.072255         0.142207
 C         2.248896        -1.339287         0.131430
 C         3.174622        -0.107551         0.114214
 C         4.559205        -0.172656         0.521644
 O         4.475640        -0.034079         1.929378
 C         3.042797         0.098157         2.444092
 C         2.304205         0.590127         1.201891
 O         2.408384         0.522672        -0.994111
 H        -0.487819        -0.632968         0.745215
 H        -0.411978         1.047343         0.019026
 H        -0.477969        -0.337365        -1.069781
 H         2.276564        -1.859709         1.077333
 H         2.236121        -1.987776        -0.727314
 H         5.227881        -0.986137         0.478260
 H         5.083297         0.749664         0.041219
 H         2.760446        -0.875483         2.733769
 H         3.247770         0.747717         3.344437
 H         2.333389         1.699809         1.139833
