19
Iteration:  4965
 C        -0.153039         0.058969        -0.055728
 C         1.394076        -0.132587         0.094367
 C         2.441771        -1.268940        -0.034555
 C         3.245044         0.028741         0.094530
 C         4.625346         0.144041         0.529920
 O         4.393661        -0.285622         1.940070
 C         3.053652        -0.185725         2.384385
 C         2.329990         0.456168         1.263437
 O         2.318437         0.684857        -0.836886
 H        -0.635211         0.968536        -0.594165
 H        -0.823211        -0.821143        -0.423074
 H        -0.619818         0.258599         0.997589
 H         2.596497        -2.004225         0.756458
 H         2.609714        -1.562467        -1.018734
 H         5.429433        -0.471703         0.017618
 H         5.002902         1.244618         0.594927
 H         2.728470        -1.197883         2.606916
 H         3.089265         0.320442         3.301565
 H         2.410202         1.504133         1.345417
