19
Iteration:  4434
 C         0.011769        -0.003109        -0.043260
 C         1.432169        -0.112400         0.145071
 C         2.343593        -1.291499        -0.027194
 C         3.184257         0.092407         0.105057
 C         4.613797         0.094287         0.582957
 O         4.409149        -0.360928         1.923335
 C         3.072855        -0.111208         2.472024
 C         2.255621         0.508249         1.267725
 O         2.282050         0.713423        -1.015168
 H        -0.281378         1.045472        -0.037119
 H        -0.364642        -0.287394        -1.005380
 H        -0.378576        -0.684659         0.760477
 H         2.481003        -2.049733         0.862187
 H         2.604169        -1.633412        -0.990050
 H         5.177358        -0.735487         0.091657
 H         5.115884         1.010698         0.596156
 H         2.728025        -1.036868         3.024618
 H         3.151995         0.893891         3.093658
 H         2.157572         1.551980         1.590571
