19
Iteration:  3664
 C        -0.065176         0.079694        -0.070033
 C         1.408669        -0.067727         0.175539
 C         2.263476        -1.415336        -0.002534
 C         3.172171        -0.182990         0.035543
 C         4.542476        -0.136983         0.524162
 O         4.475351         0.128796         2.046570
 C         3.117888         0.000922         2.399457
 C         2.397488         0.515570         1.219757
 O         2.342032         0.584068        -0.951304
 H        -0.336627         1.057614        -0.513047
 H        -0.571226        -0.665290        -0.637116
 H        -0.712521        -0.001900         0.880105
 H         2.176974        -2.032713         0.836593
 H         2.125556        -1.977261        -0.949596
 H         4.937477        -1.188636         0.653554
 H         5.358908         0.573214         0.122882
 H         2.836751        -0.997625         2.701234
 H         3.008227         0.553439         3.335673
 H         2.483317         1.604100         1.213994
