19
Iteration:  3615
 C        -0.111612         0.168345        -0.082159
 C         1.388847        -0.080587         0.021862
 C         2.225376        -1.425306         0.114509
 C         3.182897        -0.166012         0.096794
 C         4.614611        -0.095778         0.540969
 O         4.585143         0.099806         2.003538
 C         3.053240         0.020651         2.471337
 C         2.350924         0.503838         1.175785
 O         2.303652         0.480679        -0.959935
 H        -0.417705         0.961522         0.547212
 H        -0.612165         0.382633        -1.035725
 H        -0.634210        -0.651318         0.165737
 H         2.537880        -2.059704         1.026986
 H         2.170140        -2.043816        -0.778236
 H         5.237864        -0.932611         0.304237
 H         5.072251         0.783911         0.303000
 H         2.938687        -1.090803         2.818227
 H         3.003470         0.519790         3.475055
 H         2.458407         1.583699         0.956177
