19
Iteration:  4208charge 0 multiplicity 1
 C        -0.019076         0.040673        -0.055540
 C         1.420165        -0.116096         0.192796
 C         2.248932        -1.259527        -0.090844
 C         3.246739        -0.067707         0.124400
 C         4.590395         0.101439         0.521438
 O         4.438879        -0.191829         1.963554
 C         3.004245        -0.084824         2.473779
 C         2.318714         0.465162         1.302209
 O         2.375903         0.623872        -0.973725
 H        -0.626121         0.193993         0.823378
 H        -0.218789         0.854483        -0.818548
 H        -0.640416        -0.890883        -0.434937
 H         2.241767        -2.058703         0.659228
 H         2.371716        -1.641564        -1.067102
 H         5.301380        -0.537661         0.066941
 H         5.071660         1.111647         0.464324
 H         2.764155        -1.123127         2.981140
 H         3.121621         0.525340         3.325367
 H         2.281411         1.541364         1.097589
