19
Iteration:  4827charge 0 multiplicity 1
 C        -0.037557         0.107461        -0.036005
 C         1.417593        -0.080145         0.027689
 C         2.227461        -1.358130        -0.088068
 C         3.198255        -0.119101         0.140282
 C         4.595261         0.061730         0.547176
 O         4.544063        -0.045324         2.040881
 C         3.082203        -0.204683         2.432206
 C         2.284159         0.428066         1.256701
 O         2.286421         0.718595        -0.930020
 H        -0.325502         0.638231         0.831873
 H        -0.417603         0.473592        -0.980487
 H        -0.308884        -0.950980         0.037248
 H         2.298244        -2.071896         0.818539
 H         2.352631        -1.855332        -1.035199
 H         5.243590        -0.693254         0.145911
 H         4.893974         0.998079         0.196120
 H         3.000816        -1.335875         2.647781
 H         2.972999         0.271846         3.433631
 H         2.218118         1.577988         1.324040
