19
Iteration:  4147charge 0 multiplicity 1
 C        -0.057314         0.033170        -0.099361
 C         1.505591        -0.123544         0.200368
 C         2.360748        -1.276187        -0.009852
 C         3.205349         0.021424         0.070426
 C         4.619865         0.063556         0.586422
 O         4.388373        -0.304172         1.948477
 C         3.069088        -0.033887         2.402134
 C         2.276364         0.594387         1.259808
 O         2.281255         0.548578        -0.939528
 H        -0.595295        -0.805409         0.394203
 H        -0.361434         0.916618         0.500234
 H        -0.137089         0.179459        -1.115312
 H         2.501473        -1.943575         0.856251
 H         2.369515        -1.857901        -1.013798
 H         5.227448        -0.707584        -0.057407
 H         5.105732         1.092632         0.592186
 H         2.489187        -0.782018         2.860199
 H         3.118698         0.780143         3.277849
 H         2.233519         1.700140         1.194107
