19
Iteration:   388
 C        -0.123114        -0.118362        -0.089636
 C         1.372111        -0.022981         0.099079
 C         2.310690        -1.283344         0.199410
 C         3.193039        -0.045795         0.140872
 C         4.656642        -0.036642         0.528520
 O         4.468414        -0.196981         1.936889
 C         3.038626         0.081884         2.406678
 C         2.324831         0.662535         1.153197
 O         2.387508         0.531885        -0.959392
 H        -0.481998        -0.447072         0.947146
 H        -0.613438         0.915074        -0.182431
 H        -0.414260        -0.834618        -0.877628
 H         2.218199        -1.917432         1.117773
 H         2.176403        -1.634307        -0.821866
 H         5.382612        -0.836978         0.119587
 H         5.190477         0.857961         0.264677
 H         2.565399        -0.888506         2.592931
 H         3.018684         0.630263         3.313656
 H         2.417632         1.787584         1.178165
