19
Iteration:  4890
 C        -0.038608         0.075889        -0.121082
 C         1.366217        -0.176422         0.069666
 C         2.305788        -1.324450        -0.097147
 C         3.149506        -0.028729         0.106952
 C         4.603551         0.027011         0.529074
 O         4.472186        -0.005369         1.990661
 C         3.179487        -0.260341         2.452003
 C         2.285664         0.381724         1.267882
 O         2.308166         0.775080        -0.825499
 H        -0.329521         1.085187         0.001953
 H        -0.576147        -0.239226        -1.018220
 H        -0.626596        -0.206552         0.760809
 H         2.436347        -1.988743         0.798821
 H         2.274255        -1.805736        -1.030139
 H         5.178332        -0.873181         0.305300
 H         5.234095         0.922229         0.225901
 H         2.998596        -1.332080         2.649814
 H         2.996314         0.207226         3.372046
 H         2.134831         1.426821         1.356747
