19
Iteration:   232
 C        -0.086119        -0.013845        -0.051840
 C         1.405108        -0.171736         0.135311
 C         2.334000        -1.384271        -0.020716
 C         3.192796        -0.098614         0.133191
 C         4.606605        -0.076073         0.551983
 O         4.498177        -0.189303         2.003999
 C         3.065272         0.227651         2.445011
 C         2.344505         0.566858         1.155721
 O         2.274624         0.628886        -0.901822
 H        -0.763659        -0.221089         0.750293
 H        -0.357832         1.058040        -0.477121
 H        -0.397801        -0.790099        -0.860086
 H         2.423722        -2.058580         0.856814
 H         2.438901        -1.927102        -0.962469
 H         5.145705        -0.950364         0.129663
 H         5.045809         0.939314         0.360342
 H         2.649871        -0.617243         2.939022
 H         3.216362         1.094441         3.149597
 H         2.313418         1.675233         0.852850
