19
Iteration:   930
 C        -0.028094        -0.029913         0.097888
 C         1.485798        -0.021184         0.081884
 C         2.358195        -1.381813         0.064018
 C         3.236939        -0.052908         0.068299
 C         4.655040         0.138700         0.648262
 O         4.365338        -0.374004         1.900167
 C         2.965212         0.073455         2.383311
 C         2.405748         0.712656         1.155565
 O         2.283449         0.479615        -1.011487
 H        -0.369251        -0.486311         0.985886
 H        -0.454816         1.140306         0.058481
 H        -0.351336        -0.586689        -0.784593
 H         2.301357        -1.850234         0.994897
 H         2.167730        -1.926879        -0.864908
 H         5.388164        -0.596573         0.218582
 H         4.843700         1.203438         0.670725
 H         2.340269        -0.698105         2.856787
 H         3.134317         0.868784         3.134516
 H         2.101013         1.800452         1.063317
