19
Iteration:  2688charge 0 multiplicity 1
 C        -0.099108         0.207418         0.023437
 C         1.447396        -0.099429         0.103752
 C         2.255930        -1.429093         0.058399
 C         3.191389        -0.198097         0.132942
 C         4.720641        -0.140009         0.621753
 O         4.488922         0.116032         2.012064
 C         3.030170         0.022906         2.289435
 C         2.308681         0.575853         1.146706
 O         2.281385         0.484672        -0.965123
 H        -0.543489        -0.311640         0.937748
 H        -0.180221         1.250350         0.174952
 H        -0.450501        -0.263252        -0.972269
 H         2.264475        -2.220389         0.822193
 H         2.301180        -1.860619        -0.921001
 H         5.226144        -1.107476         0.498190
 H         5.345823         0.701281         0.136179
 H         2.644226        -1.181268         2.376205
 H         2.920697         0.289711         3.379824
 H         2.309973         1.664102         0.852849
