19
Iteration:  3163charge 0 multiplicity 1
 C        -0.043620         0.120315         0.046636
 C         1.448898        -0.088863         0.182032
 C         2.311204        -1.376638         0.031486
 C         3.219011        -0.085041         0.009220
 C         4.655929         0.015270         0.629053
 O         4.381158        -0.207716         1.987729
 C         3.071987         0.141457         2.422722
 C         2.393385         0.580256         1.077780
 O         2.240303         0.409846        -0.998398
 H        -0.562410        -0.418294         0.890329
 H        -0.267352         1.122859         0.258653
 H        -0.332219        -0.278019        -0.985390
 H         2.306475        -1.974315         0.907139
 H         2.272220        -1.704544        -0.965735
 H         5.332421        -0.731720         0.489920
 H         5.181733         0.911789         0.348785
 H         2.448010        -0.723850         2.878442
 H         3.149430         0.996014         3.135216
 H         2.269271         1.711928         0.973813
