19
Iteration:  3652
 C        -0.098577         0.081858        -0.041251
 C         1.384663        -0.061175         0.206561
 C         2.195464        -1.339787         0.048667
 C         3.180935        -0.165873         0.015883
 C         4.630751        -0.150959         0.562230
 O         4.446633         0.178964         1.967014
 C         3.054000        -0.057338         2.473632
 C         2.367705         0.509906         1.251923
 O         2.433384         0.513729        -1.003507
 H        -0.424658         1.137698        -0.227973
 H        -0.117911        -0.510773        -0.904404
 H        -0.500711        -0.321293         0.933248
 H         2.325537        -2.096419         0.774568
 H         1.911804        -1.684832        -0.988543
 H         5.082677        -1.188437         0.310284
 H         5.196636         0.580359        -0.103749
 H         2.893870        -1.122244         2.569717
 H         2.861466         0.595222         3.357570
 H         2.538253         1.576034         1.205728
