19
Iteration:  4945charge 0 multiplicity 1
 C         0.008431         0.017281        -0.022910
 C         1.453717        -0.052131         0.154930
 C         2.300968        -1.336488        -0.124007
 C         3.208944         0.009727         0.048158
 C         4.587627         0.106998         0.564166
 O         4.512673        -0.194237         1.975318
 C         3.005224        -0.260647         2.427720
 C         2.319542         0.471941         1.284378
 O         2.268079         0.754148        -0.883465
 H        -0.233652         0.815222        -0.741374
 H        -0.460319        -0.889887        -0.491632
 H        -0.734295         0.104517         0.822665
 H         2.318803        -1.959814         0.794044
 H         2.313435        -1.871629        -1.065770
 H         5.298654        -0.631925         0.141268
 H         5.036166         1.189940         0.389046
 H         2.732340        -1.281659         2.666201
 H         2.897282         0.405013         3.261173
 H         2.154285         1.524391         1.320555
