19
Iteration:  4497charge 0 multiplicity 1
 C        -0.068115         0.013009        -0.032425
 C         1.379464        -0.057431         0.168190
 C         2.307901        -1.297321        -0.040085
 C         3.194568        -0.001565         0.037235
 C         4.616179         0.117729         0.614474
 O         4.484462        -0.275544         1.984630
 C         3.071131        -0.151703         2.464429
 C         2.377140         0.547312         1.266186
 O         2.276889         0.651930        -1.024245
 H        -0.616082         0.706157         0.711012
 H        -0.255145         0.295509        -1.091240
 H        -0.520192        -0.976555        -0.000310
 H         2.217902        -2.052432         0.670874
 H         2.470012        -1.681165        -1.043100
 H         5.270916        -0.674785         0.122021
 H         5.230778         1.113785         0.533578
 H         2.808668        -1.088767         2.935978
 H         3.072469         0.548044         3.283337
 H         2.025053         1.585275         1.326217
