19
Iteration:  2379
 C        -0.121181        -0.013359         0.011865
 C         1.431587         0.002366         0.131503
 C         2.166735        -1.332884         0.011704
 C         3.249004        -0.169651         0.050241
 C         4.735137        -0.173807         0.687148
 O         4.482460         0.051759         2.062924
 C         3.045777         0.069165         2.405399
 C         2.399719         0.683483         1.145188
 O         2.269482         0.443112        -1.078832
 H        -0.375460        -0.547130         1.014249
 H        -0.334218         1.153500         0.070215
 H        -0.477215        -0.565239        -0.896791
 H         2.102043        -2.066571         0.843834
 H         1.927539        -1.787690        -0.953455
 H         5.155671        -1.137164         0.445007
 H         5.361003         0.601012         0.086945
 H         2.689547        -0.946968         2.651788
 H         2.949859         0.709690         3.223050
 H         2.515247         1.728675         1.003755
