19
Iteration:   179
 C        -0.017363         0.039681        -0.031518
 C         1.427540        -0.185396         0.091091
 C         2.357479        -1.341317         0.320560
 C         3.174264         0.007284         0.108374
 C         4.565450         0.142506         0.541100
 O         4.434076        -0.370847         1.891156
 C         3.011834         0.054086         2.295301
 C         2.265466         0.686138         1.162026
 O         2.397015         0.463774        -0.979705
 H        -0.539100        -0.333341         0.716485
 H        -0.114341         1.155737         0.186787
 H        -0.609738        -0.240609        -0.951060
 H         2.496486        -1.797984         1.343415
 H         2.375588        -2.029346        -0.545945
 H         5.424483        -0.273541        -0.024324
 H         4.795787         1.186796         0.547889
 H         2.503277        -0.807060         2.765147
 H         3.218804         0.822698         3.085453
 H         2.161439         1.815280         0.994860
