19
Iteration:  4899charge 0 multiplicity 1
 C        -0.167215         0.090649        -0.112777
 C         1.329676        -0.121988         0.084208
 C         2.363442        -1.322736        -0.071689
 C         3.178675        -0.008992         0.070055
 C         4.666870        -0.019525         0.508555
 O         4.511787        -0.003424         1.999470
 C         3.098709        -0.247477         2.456171
 C         2.316153         0.322798         1.327666
 O         2.319850         0.791307        -0.847393
 H        -0.258261         1.246591        -0.330101
 H        -0.538733        -0.586686        -0.964557
 H        -0.639336        -0.393857         0.809097
 H         2.255724        -2.071903         0.704426
 H         2.343864        -1.817073        -1.002591
 H         5.385946        -0.852713         0.166086
 H         5.112101         1.057477         0.245678
 H         2.917482        -1.299719         2.594147
 H         2.955592         0.290156         3.357741
 H         2.150111         1.358503         1.397301
