19
Iteration:  3861
 C         0.006695         0.090863        -0.041324
 C         1.470332        -0.047450         0.117801
 C         2.414850        -1.346927         0.071389
 C         3.169998        -0.042193         0.035156
 C         4.546419         0.068323         0.556972
 O         4.432844        -0.216048         1.954667
 C         2.976629        -0.082473         2.418224
 C         2.390846         0.609772         1.217227
 O         2.258470         0.501333        -0.895436
 H        -0.506559        -0.739993        -0.484905
 H        -0.605885         0.359834         0.839196
 H        -0.155235         0.915334        -0.849681
 H         2.556485        -2.018621         0.954514
 H         2.289705        -1.859230        -0.868726
 H         5.231584        -0.678996         0.073492
 H         4.989033         1.008148         0.321995
 H         2.432362        -1.119267         2.739936
 H         2.902185         0.688890         3.272564
 H         2.520601         1.713102         1.103074
