19
Iteration:  3871charge 0 multiplicity 1
 C        -0.004851         0.145288        -0.073039
 C         1.400924        -0.176392         0.251222
 C         2.379805        -1.310072         0.041524
 C         3.222004        -0.043306         0.107509
 C         4.600013         0.071539         0.498490
 O         4.390970        -0.190592         1.981171
 C         3.003610        -0.055006         2.443761
 C         2.347285         0.528615         1.164454
 O         2.288326         0.546138        -0.990199
 H        -0.497405        -0.742011        -0.495323
 H        -0.579858         0.349517         0.838485
 H        -0.037008         1.099566        -0.713404
 H         2.452867        -2.018980         0.935105
 H         2.401191        -1.882899        -0.910110
 H         5.247556        -0.793129         0.176479
 H         4.999519         1.080345         0.224312
 H         2.721912        -1.136400         2.882518
 H         3.085099         0.631323         3.381902
 H         2.372652         1.630110         1.168191
