19
Iteration:  4996
 C        -0.010096         0.032198        -0.055810
 C         1.456337        -0.097868         0.160870
 C         2.330127        -1.237786        -0.049508
 C         3.229250         0.066545         0.057748
 C         4.618290         0.196772         0.611585
 O         4.479388        -0.409640         1.935709
 C         3.038024        -0.131023         2.433630
 C         2.274119         0.453108         1.284078
 O         2.230063         0.670081        -0.947085
 H        -0.334016         1.052851        -0.517284
 H        -0.566514        -0.772821        -0.605546
 H        -0.465673        -0.241931         0.936817
 H         2.556585        -2.038882         0.659997
 H         2.366563        -1.622210        -1.044918
 H         5.420158        -0.341501         0.028251
 H         4.838401         1.197036         0.781487
 H         2.682698        -1.120841         2.787323
 H         3.067919         0.640083         3.189064
 H         2.273536         1.530104         1.206890
