19
Iteration:   551
 C        -0.176133         0.097394        -0.175901
 C         1.343640        -0.093127         0.059695
 C         2.214878        -1.432821        -0.022668
 C         3.252263        -0.204095         0.169907
 C         4.637468        -0.187320         0.552797
 O         4.457384         0.274695         1.935221
 C         3.193898         0.016321         2.470157
 C         2.376258         0.372021         1.271000
 O         2.345222         0.611527        -0.831444
 H        -0.721218        -0.481551         0.636410
 H        -0.563234         1.126408        -0.006197
 H        -0.365226        -0.205926        -1.194566
 H         2.155488        -2.161280         0.801780
 H         2.188404        -1.814541        -1.038060
 H         5.154356        -1.197755         0.368441
 H         5.372648         0.615708         0.029838
 H         3.070130        -1.085023         2.756825
 H         3.020712         0.612541         3.419946
 H         2.166386         1.443063         1.221205
