19
Iteration:  4681
 C        -0.174032        -0.009789        -0.038044
 C         1.410353        -0.133496         0.219513
 C         2.310417        -1.308656        -0.100393
 C         3.177502         0.023184         0.098901
 C         4.669881         0.155288         0.553568
 O         4.477386        -0.278594         1.972678
 C         3.052904        -0.155211         2.382332
 C         2.287305         0.513257         1.263918
 O         2.417293         0.709829        -0.912317
 H        -0.314721         0.926051        -0.615055
 H        -0.514919        -0.911591        -0.532162
 H        -0.690801         0.308851         0.875665
 H         2.403143        -2.146617         0.656485
 H         2.255459        -1.539911        -1.257768
 H         5.272991        -0.626809         0.190386
 H         5.131547         1.115050         0.443843
 H         2.613438        -1.218755         2.701113
 H         2.925697         0.416781         3.283291
 H         2.221346         1.599612         1.285888
