19
Iteration:  1205
 C         0.001883         0.085715        -0.080931
 C         1.379180        -0.196701         0.102519
 C         2.283866        -1.404555         0.059456
 C         3.194099        -0.044569         0.120620
 C         4.543045         0.118942         0.557577
 O         4.370129        -0.326062         1.930614
 C         3.149312         0.202467         2.478311
 C         2.326532         0.556893         1.204851
 O         2.349003         0.485705        -0.967647
 H        -0.240575        -0.060954         0.990556
 H        -0.084205         1.044911        -0.324247
 H        -0.451023        -0.604674        -0.794337
 H         2.388236        -2.001224         0.924710
 H         2.327399        -1.822875        -0.947009
 H         5.449828        -0.431230         0.220837
 H         4.735696         1.199653         0.484168
 H         2.731851        -0.564641         3.129819
 H         3.355762         1.099553         3.110003
 H         2.165742         1.591449         1.037110
