19
Iteration:  3952
 C        -0.161516         0.074252        -0.116478
 C         1.336002        -0.155353         0.186211
 C         2.286094        -1.314182         0.121857
 C         3.201508         0.015200         0.119429
 C         4.634491        -0.132834         0.495057
 O         4.520039        -0.033390         2.043740
 C         3.063441        -0.027185         2.335559
 C         2.327809         0.573197         1.235996
 O         2.360804         0.540048        -0.973848
 H        -0.190881         0.426138        -1.202010
 H        -0.722829        -0.910173         0.068441
 H        -0.463888         0.905621         0.465589
 H         2.342474        -1.978580         0.908637
 H         2.415262        -1.762119        -0.869438
 H         5.181893        -1.042174         0.276488
 H         5.208217         0.655555         0.033602
 H         2.893784        -1.207982         2.621948
 H         3.030096         0.566263         3.229076
 H         2.382780         1.686378         1.373851
