19
Iteration:  3695charge 0 multiplicity 1
 C        -0.171376         0.138120        -0.129328
 C         1.401647        -0.093637         0.068432
 C         2.309935        -1.388048         0.017210
 C         3.216244        -0.140716         0.158546
 C         4.694188        -0.063370         0.531167
 O         4.554493        -0.009370         2.018181
 C         3.083764         0.018922         2.464536
 C         2.309294         0.524428         1.284250
 O         2.221718         0.509301        -0.974528
 H        -0.350522         0.952705        -0.863199
 H        -0.738503        -0.701595        -0.390180
 H        -0.484002         0.604717         0.808710
 H         2.188736        -2.058362         0.864240
 H         2.409816        -1.928552        -1.005945
 H         5.227874        -1.049369         0.410573
 H         5.396141         0.699004         0.215267
 H         2.850414        -1.088460         2.671386
 H         3.174018         0.859684         3.183338
 H         2.206496         1.601547         1.223748
