19
Iteration:  1549charge 0 multiplicity 1
 C        -0.045279         0.026012         0.025363
 C         1.424808        -0.067739         0.055880
 C         2.226751        -1.384393         0.024019
 C         3.192615        -0.179782         0.099855
 C         4.631956        -0.044101         0.580315
 O         4.436773         0.013520         1.993826
 C         2.971595         0.031110         2.416918
 C         2.422202         0.560746         1.186341
 O         2.379873         0.530083        -0.954040
 H        -0.465879         0.046771         1.059471
 H        -0.295216         1.010676        -0.570262
 H        -0.652109        -0.725157        -0.567303
 H         2.110264        -2.168651         0.814734
 H         2.144674        -1.805113        -1.011187
 H         5.308592        -0.822046         0.282486
 H         5.161830         0.878087         0.190399
 H         2.716066        -0.972155         2.681510
 H         3.058002         0.725446         3.276015
 H         2.379371         1.671866         1.096408
