19
Iteration:   862charge 0 multiplicity 1
 C        -0.049359         0.084718        -0.156715
 C         1.436078        -0.114619         0.073310
 C         2.186029        -1.423139        -0.030440
 C         3.180990        -0.130010         0.171075
 C         4.562957        -0.136979         0.562887
 O         4.524992         0.235742         1.976305
 C         3.164060        -0.079354         2.460693
 C         2.372845         0.450737         1.270768
 O         2.248364         0.585268        -0.882623
 H        -0.706798        -0.606511         0.360369
 H        -0.338071         1.241340         0.050667
 H        -0.046058        -0.157116        -1.287207
 H         2.300720        -2.009089         0.890957
 H         2.112396        -1.926878        -0.980061
 H         4.909310        -1.177363         0.395881
 H         4.966185         0.753206         0.071658
 H         3.052715        -1.228651         2.595699
 H         3.078276         0.434618         3.405143
 H         2.479112         1.574405         1.335909
