19
Iteration:  4472
 C        -0.089403        -0.040689        -0.050591
 C         1.383175        -0.022141         0.106056
 C         2.352557        -1.317559         0.014518
 C         3.172710        -0.054973         0.092476
 C         4.665124         0.128786         0.619815
 O         4.439740        -0.373925         1.956477
 C         3.013729        -0.078014         2.368611
 C         2.451314         0.567596         1.213093
 O         2.251921         0.722098        -0.890160
 H        -0.538225         0.753098         0.636516
 H        -0.371758         0.142840        -1.128701
 H        -0.533961        -0.996815         0.182150
 H         2.532822        -2.115982         0.795001
 H         2.385100        -1.866816        -1.066057
 H         5.486349        -0.386952         0.141486
 H         4.932522         1.271000         0.531978
 H         2.594610        -0.936962         2.850935
 H         3.102848         0.562578         3.167695
 H         2.374992         1.642272         1.014607
