19
Iteration:  1020charge 0 multiplicity 1
 C        -0.109150         0.037249        -0.200340
 C         1.274339        -0.067919         0.118356
 C         2.184591        -1.329393         0.093849
 C         3.201628        -0.118706         0.168902
 C         4.646895         0.014054         0.522468
 O         4.569514        -0.066555         2.050772
 C         3.172682        -0.029457         2.453647
 C         2.348025         0.514381         1.184514
 O         2.332007         0.557534        -0.971691
 H        -0.767995        -0.417236         0.669172
 H        -0.449778         1.053552        -0.318337
 H        -0.344490        -0.521750        -1.111847
 H         2.283522        -1.862565         0.955993
 H         1.991953        -1.816547        -0.821999
 H         5.178511        -0.872063         0.205118
 H         5.114883         0.958454         0.256973
 H         2.921106        -0.986010         2.804253
 H         3.088722         0.643634         3.330147
 H         2.360715         1.561885         1.222633
