19
Iteration:  4791charge 0 multiplicity 1
 C        -0.103921         0.015959        -0.054664
 C         1.332926        -0.172845         0.256325
 C         2.360570        -1.319988        -0.024768
 C         3.148580         0.032331         0.038302
 C         4.631177         0.031831         0.559367
 O         4.520459        -0.204873         2.038890
 C         3.092545        -0.145718         2.401259
 C         2.349217         0.499912         1.169737
 O         2.327103         0.776378        -0.924389
 H        -0.738653         0.654213         0.538501
 H        -0.254397         0.506828        -1.007454
 H        -0.684084        -0.932214        -0.015614
 H         2.551306        -2.183477         0.761984
 H         2.303561        -1.835336        -1.002345
 H         5.149537        -0.728164         0.088226
 H         5.111458         1.020681         0.430120
 H         2.502937        -1.181072         2.533464
 H         3.042048         0.526683         3.212514
 H         2.152661         1.553101         1.040864
