19
Iteration:  2126charge 0 multiplicity 1
 C        -0.124697         0.163721        -0.278328
 C         1.268300        -0.121087         0.203709
 C         2.121710        -1.437485         0.193009
 C         3.220323        -0.188335         0.086449
 C         4.636259         0.069861         0.561718
 O         4.593085         0.022064         1.971551
 C         3.185457         0.046196         2.438897
 C         2.402527         0.565933         1.232845
 O         2.301216         0.366288        -0.916052
 H        -0.863152        -0.580832        -0.050987
 H        -0.512263         1.148895         0.225598
 H        -0.123979         0.064073        -1.426119
 H         2.089182        -2.200238         0.951533
 H         2.332482        -1.938827        -0.741234
 H         5.464890        -0.512180         0.054579
 H         4.797113         1.195821         0.167636
 H         2.825063        -1.049371         2.699265
 H         3.051364         0.686976         3.324389
 H         2.539850         1.619538         1.207057
