19
Iteration:  1523
 C        -0.070972         0.101811        -0.032219
 C         1.396278        -0.149046         0.145564
 C         2.376051        -1.390541         0.092366
 C         3.141693        -0.096719         0.022929
 C         4.638742         0.047226         0.543654
 O         4.428530        -0.186654         2.010878
 C         3.019025         0.112270         2.428662
 C         2.312282         0.540113         1.216849
 O         2.364157         0.528803        -1.017726
 H        -0.707233         0.082810         0.898701
 H        -0.154920         1.015943        -0.509956
 H        -0.550673        -0.585122        -0.681572
 H         2.470204        -1.864145         1.092508
 H         2.308923        -2.152380        -0.691053
 H         5.300210        -0.745034         0.079261
 H         5.165898         0.951807         0.378734
 H         2.616881        -0.877223         2.894457
 H         3.248410         0.927764         3.156021
 H         2.285821         1.622672         1.028502
