19
Iteration:  3719
 C        -0.056867         0.108515        -0.120981
 C         1.354197        -0.150099         0.190508
 C         2.260598        -1.322317         0.119695
 C         3.164138        -0.145140         0.075493
 C         4.540037         0.027894         0.536011
 O         4.488966        -0.106180         1.959407
 C         3.073217         0.009545         2.423614
 C         2.415771         0.519620         1.227439
 O         2.366549         0.522431        -0.958607
 H        -0.193849         0.673136        -1.020754
 H        -0.566909        -0.833294        -0.290867
 H        -0.571838         0.766239         0.735991
 H         2.262635        -1.982310         0.940861
 H         2.061994        -1.824211        -0.833153
 H         5.447942        -0.639941         0.381204
 H         4.896492         1.094879         0.224718
 H         2.776242        -1.016866         2.618863
 H         3.146506         0.739336         3.190576
 H         2.465912         1.619200         1.171914
