19
Iteration:  4230charge 0 multiplicity 1
 C        -0.135092         0.096008        -0.117892
 C         1.398882        -0.081777         0.091515
 C         2.323824        -1.414276        -0.018659
 C         3.234396        -0.046786         0.071192
 C         4.586778         0.041780         0.592871
 O         4.495864        -0.142256         2.028570
 C         3.090447        -0.112767         2.387332
 C         2.366384         0.474816         1.206954
 O         2.285252         0.709747        -0.845767
 H        -0.509663         0.421292         0.850380
 H        -0.543467         0.779992        -0.930243
 H        -0.730093        -0.909263        -0.158050
 H         2.654279        -2.140655         0.703525
 H         2.528095        -1.865750        -0.952974
 H         5.203833        -0.761955         0.259200
 H         5.147889         1.024485         0.408537
 H         2.739636        -1.216004         2.563198
 H         2.919832         0.429774         3.290711
 H         2.131017         1.518168         1.037654
