19
Iteration:   285charge 0 multiplicity 1
 C        -0.130315         0.070348        -0.128288
 C         1.400839        -0.082824         0.192867
 C         2.183064        -1.366190         0.071203
 C         3.202222        -0.238456         0.065997
 C         4.642009        -0.123933         0.591061
 O         4.498755         0.273793         2.039420
 C         3.113370        -0.085835         2.333371
 C         2.403498         0.556673         1.172948
 O         2.324800         0.514890        -0.906956
 H        -0.601375        -0.583311         0.657775
 H        -0.485678         1.115146         0.020770
 H        -0.496953        -0.315393        -1.117103
 H         2.159209        -2.123314         0.747910
 H         2.157497        -1.815306        -0.900780
 H         5.060616        -1.097800         0.571913
 H         5.279757         0.672950         0.135306
 H         2.973828        -1.125257         2.202237
 H         2.848009         0.125807         3.396885
 H         2.579727         1.622997         1.133135
