19
Iteration:  3948
 C        -0.133750         0.051616        -0.115074
 C         1.333179        -0.134433         0.214853
 C         2.246519        -1.313807         0.117731
 C         3.180997        -0.001498         0.102483
 C         4.646887        -0.114611         0.504662
 O         4.531651        -0.035480         2.051790
 C         3.046306        -0.019381         2.317261
 C         2.353757         0.520431         1.205179
 O         2.360977         0.558412        -0.968855
 H         0.011309         0.346654        -1.102258
 H        -0.670083        -0.841683         0.095354
 H        -0.551344         0.982315         0.422693
 H         2.345425        -2.068280         1.002344
 H         2.370036        -1.700902        -0.875859
 H         5.138772        -1.137867         0.299539
 H         5.132322         0.828164         0.105256
 H         2.866225        -0.987943         2.505702
 H         3.003088         0.585619         3.276402
 H         2.410139         1.608119         1.333837
