19
Iteration:  3609charge 0 multiplicity 1
 C        -0.092199         0.186160        -0.117852
 C         1.350759        -0.092992         0.110337
 C         2.276319        -1.417908         0.083604
 C         3.178558        -0.201082         0.088969
 C         4.624528        -0.072219         0.542464
 O         4.563182         0.078317         2.006326
 C         3.064433         0.010322         2.503854
 C         2.374562         0.498058         1.160327
 O         2.277242         0.472676        -0.989386
 H        -0.415399         0.940515         0.696664
 H        -0.357961         0.538498        -1.133380
 H        -0.736195        -0.783718         0.241438
 H         2.328188        -1.915318         1.019415
 H         2.245416        -2.054802        -0.829760
 H         5.304313        -0.971909         0.281404
 H         5.114137         0.930307         0.109680
 H         2.755441        -0.928486         2.884124
 H         3.045523         0.741151         3.343638
 H         2.372944         1.601718         1.204109
