19
Iteration:  3313charge 0 multiplicity 1
 C        -0.098123         0.152870         0.012162
 C         1.430339        -0.093385         0.197233
 C         2.252709        -1.363119         0.094172
 C         3.212279        -0.178426         0.012164
 C         4.678069        -0.025239         0.541090
 O         4.449915         0.069057         2.028453
 C         2.969915        -0.001398         2.360232
 C         2.384526         0.469970         1.126952
 O         2.336345         0.459929        -0.981140
 H        -0.485051         0.301864         1.035906
 H        -0.248464         1.040746        -0.612558
 H        -0.612138        -0.616053        -0.551133
 H         2.393809        -2.058690         0.993737
 H         2.203094        -1.964913        -0.783822
 H         5.156834        -1.045507         0.319017
 H         5.158488         0.884997         0.149897
 H         2.747156        -0.919511         2.701604
 H         3.057024         0.649398         3.232829
 H         2.516825         1.568041         1.179807
