19
Iteration:  4641
 C        -0.112177         0.085056        -0.071967
 C         1.381840        -0.017489         0.048922
 C         2.341584        -1.367819        -0.141936
 C         3.225320        -0.109664         0.182769
 C         4.694069         0.057743         0.578835
 O         4.491545        -0.092293         2.031418
 C         3.040787        -0.230996         2.339372
 C         2.338203         0.481814         1.255855
 O         2.246779         0.718276        -0.819048
 H        -0.371777         0.789446        -0.814631
 H        -0.618087        -0.881400        -0.260534
 H        -0.621036         0.182621         0.944953
 H         2.347393        -2.220660         0.565233
 H         2.375686        -1.652273        -1.145436
 H         5.324038        -0.773455         0.084692
 H         5.148454         1.080329         0.244209
 H         2.718462        -1.208354         2.377596
 H         3.082371         0.149529         3.388830
 H         2.310723         1.581176         1.473455
