19
Iteration:  4102charge 0 multiplicity 1
 C        -0.128560        -0.017637        -0.095425
 C         1.376934        -0.054080         0.009032
 C         2.245319        -1.232912         0.057342
 C         3.201971        -0.086181         0.086062
 C         4.662157         0.031662         0.606631
 O         4.466957        -0.249787         2.001184
 C         3.127434         0.007066         2.416900
 C         2.373513         0.491688         1.180188
 O         2.305894         0.650258        -0.913051
 H        -0.459190        -1.040087        -0.148821
 H        -0.597845         0.282634         0.875620
 H        -0.429270         0.597257        -0.909396
 H         2.195522        -1.970554         0.913068
 H         2.232899        -1.939266        -0.842055
 H         5.444320        -0.789264         0.390886
 H         5.019133         1.097343         0.487357
 H         2.917220        -0.936354         2.897443
 H         3.093930         0.861218         3.249249
 H         2.337484         1.592363         1.096284
