19
Iteration:  1711
 C        -0.105523         0.031139         0.020651
 C         1.420869        -0.091668         0.057606
 C         2.382314        -1.331698         0.121618
 C         3.237613        -0.002147         0.038793
 C         4.691535        -0.040472         0.623672
 O         4.435132        -0.238281         2.028228
 C         3.009848         0.126500         2.359613
 C         2.314566         0.610989         1.128641
 O         2.264636         0.504310        -1.018943
 H        -0.526345        -0.355180         1.072199
 H        -0.306855         1.089946        -0.040073
 H        -0.410082        -0.667094        -0.803180
 H         2.350443        -2.005136         1.024663
 H         2.337163        -2.019403        -0.779324
 H         5.464032        -0.806667         0.204330
 H         5.136737         0.908354         0.324511
 H         2.641980        -0.874183         2.862960
 H         3.014083         0.923502         3.161452
 H         2.111438         1.752410         1.162851
