19
Iteration:  1269charge 0 multiplicity 1
 C         0.025670        -0.046615        -0.017426
 C         1.432381         0.027379         0.131569
 C         2.225459        -1.322964         0.115532
 C         3.202273        -0.106857         0.101580
 C         4.648350        -0.044564         0.552908
 O         4.430864        -0.138050         1.967545
 C         2.957171         0.053541         2.412694
 C         2.438623         0.661241         1.135694
 O         2.298305         0.492129        -0.967169
 H        -0.197615        -0.883709         0.602714
 H        -0.760672         0.757732         0.301407
 H        -0.296804        -0.313654        -1.049807
 H         2.274020        -2.003032         0.952234
 H         2.123869        -1.752836        -0.897236
 H         5.232525        -0.905756         0.177374
 H         5.159012         0.865711         0.247951
 H         2.490477        -0.800063         2.719480
 H         3.037581         0.803117         3.201271
 H         2.537266         1.752341         1.099814
