19
Iteration:  1732
 C        -0.119480        -0.031074         0.010470
 C         1.402405        -0.139102         0.104893
 C         2.296028        -1.317403         0.036652
 C         3.266224        -0.118757         0.075877
 C         4.635544         0.085321         0.644914
 O         4.368929        -0.322897         2.013091
 C         3.050472         0.187563         2.429344
 C         2.455863         0.620469         1.086997
 O         2.265526         0.565031        -1.004249
 H        -0.494525         0.036119         1.156627
 H        -0.308510         0.941134        -0.397034
 H        -0.481004        -0.951060        -0.472040
 H         2.464111        -1.979453         0.919478
 H         2.411695        -1.930796        -0.895904
 H         5.408771        -0.651171         0.149383
 H         5.073360         1.065209         0.587149
 H         2.528542        -0.629771         2.946579
 H         3.262340         1.017361         3.163515
 H         2.557542         1.594504         0.580267
