19
Iteration:  3727
 C        -0.085938         0.072105        -0.114595
 C         1.440864        -0.080174         0.241372
 C         2.184103        -1.362907         0.128698
 C         3.215953        -0.186142         0.089024
 C         4.627524         0.092238         0.518911
 O         4.460738        -0.139482         1.921601
 C         3.047774        -0.000959         2.372478
 C         2.357033         0.563401         1.244419
 O         2.381695         0.533867        -0.942428
 H        -0.058061         0.648697        -1.046062
 H        -0.590641        -0.832525        -0.246580
 H        -0.384083         0.712797         0.647760
 H         2.157971        -2.000992         1.027325
 H         2.191136        -1.991834        -0.831366
 H         5.385031        -0.560102         0.108726
 H         4.839305         1.073389         0.256609
 H         2.632972        -0.997311         2.828686
 H         2.972281         0.672413         3.288719
 H         2.355266         1.628340         1.088885
