19
Iteration:  2992charge 0 multiplicity 1
 C        -0.066787         0.168389         0.005027
 C         1.393480        -0.061211         0.120540
 C         2.286621        -1.360309         0.121604
 C         3.174642        -0.119961         0.057013
 C         4.565496        -0.079155         0.585770
 O         4.456923        -0.026959         2.022011
 C         3.108470         0.095813         2.399150
 C         2.384143         0.567534         1.159578
 O         2.340034         0.389163        -1.067973
 H        -0.447949        -0.796033         0.342926
 H        -0.209489         0.982301         0.631124
 H        -0.442505         0.345147        -1.022130
 H         2.339513        -1.966259         1.078391
 H         2.120154        -2.061614        -0.746341
 H         5.172144        -0.994937         0.284563
 H         4.904944         0.851814         0.227759
 H         2.644536        -0.951376         2.531805
 H         2.964394         0.445041         3.412584
 H         2.477174         1.656700         1.157848
