19
Iteration:   270charge 0 multiplicity 1
 C        -0.100444        -0.022129        -0.058280
 C         1.355436        -0.088158         0.087053
 C         2.209084        -1.381764        -0.013144
 C         3.156585        -0.089300         0.153160
 C         4.605759        -0.200704         0.627330
 O         4.566370         0.187970         2.015807
 C         3.109778        -0.015362         2.423895
 C         2.341797         0.554065         1.204328
 O         2.346664         0.583134        -0.993252
 H        -0.696622        -0.441421         0.846506
 H        -0.388726         0.969221        -0.227078
 H        -0.230697        -0.508031        -0.979115
 H         2.196278        -2.061033         0.921905
 H         2.142713        -1.833660        -1.045308
 H         5.119048        -1.182511         0.398490
 H         5.265950         0.414447         0.018065
 H         2.898758        -1.142935         2.664150
 H         3.023704         0.575613         3.313776
 H         2.352720         1.645741         1.189567
