19
Iteration:  4616
 C        -0.086710         0.095551        -0.092485
 C         1.348247        -0.147457         0.198960
 C         2.365208        -1.288690        -0.162737
 C         3.183605        -0.014399         0.029652
 C         4.588570         0.054712         0.595989
 O         4.487170        -0.027838         2.030672
 C         3.104358        -0.263485         2.443792
 C         2.319734         0.377509         1.288775
 O         2.309892         0.710481        -0.918571
 H         0.032638         1.036101        -0.696277
 H        -0.787130        -0.636646        -0.480617
 H        -0.588169         0.356684         0.849654
 H         2.576449        -2.093414         0.624798
 H         2.136237        -1.675340        -1.281042
 H         4.998762        -0.899328         0.283874
 H         5.254869         0.820340         0.200192
 H         2.819674        -1.350732         2.679845
 H         3.082991         0.162256         3.396541
 H         2.269638         1.439368         1.561095
