19
Iteration:  3545charge 0 multiplicity 1
 C        -0.107334         0.051032        -0.129663
 C         1.347732        -0.079752         0.151479
 C         2.208344        -1.311109         0.249043
 C         3.219519        -0.036642         0.044208
 C         4.659770         0.059412         0.602569
 O         4.441287        -0.263562         1.951822
 C         3.151408         0.085645         2.415335
 C         2.391756         0.660952         1.156471
 O         2.346516         0.416304        -1.040188
 H        -0.448945         0.145299         0.934260
 H        -0.649263         0.786584        -0.679777
 H        -0.499968        -0.927024        -0.569511
 H         2.209942        -1.774895         1.192064
 H         2.089284        -2.137421        -0.502355
 H         5.237128        -0.772517         0.276557
 H         5.098655         1.005172         0.359871
 H         2.787893        -0.701721         3.027376
 H         3.320350         0.868051         3.097524
 H         2.223690         1.741190         0.949912
