19
Iteration:  1238
 C        -0.109501         0.096323        -0.006016
 C         1.357057        -0.145761         0.159117
 C         2.423136        -1.293661         0.163030
 C         3.173896        -0.016349         0.044734
 C         4.686366         0.022245         0.606890
 O         4.409642        -0.302622         2.005950
 C         3.006018         0.107809         2.375978
 C         2.378641         0.615354         1.051564
 O         2.301997         0.476685        -1.018822
 H        -0.466060        -0.625792         0.772872
 H        -0.430367         1.019371         0.247810
 H        -0.581936        -0.323902        -0.890831
 H         2.703057        -1.886337         1.002532
 H         2.476957        -1.933467        -0.713533
 H         5.401740        -0.719189         0.168231
 H         5.006279         1.040822         0.447911
 H         2.441212        -0.677603         2.821139
 H         3.275998         0.862798         3.085877
 H         2.221590         1.656861         1.067417
