19
Iteration:  3273charge 0 multiplicity 1
 C        -0.106797         0.154664        -0.096537
 C         1.344006        -0.133221         0.065598
 C         2.203007        -1.378139         0.090103
 C         3.157910        -0.109478         0.118027
 C         4.595666         0.038072         0.541826
 O         4.598482        -0.084788         2.002451
 C         3.130016         0.077281         2.443999
 C         2.357676         0.512318         1.223866
 O         2.354319         0.425241        -0.974950
 H        -0.733064        -0.107851         0.755449
 H        -0.222198         1.158399        -0.377185
 H        -0.509113        -0.543545        -0.916411
 H         2.308668        -1.834131         1.099213
 H         2.048696        -2.172422        -0.675590
 H         5.239718        -0.735968         0.261882
 H         4.993380         1.064158         0.205316
 H         2.727191        -0.938066         2.878229
 H         2.869322         0.914257         3.115847
 H         2.287722         1.642294         1.122094
