19
Iteration:  1633
 C        -0.115680         0.173566        -0.208728
 C         1.251213        -0.161787         0.128608
 C         2.221444        -1.458341        -0.012578
 C         3.112005        -0.199461         0.131738
 C         4.550929        -0.040244         0.540405
 O         4.576422         0.130993         2.013531
 C         3.228483         0.057576         2.564483
 C         2.355224         0.482625         1.205318
 O         2.383200         0.497890        -0.915429
 H        -0.721252        -0.752353         0.174143
 H        -0.385391         1.048656         0.320132
 H        -0.058578         0.174652        -1.282799
 H         2.089296        -2.142777         0.846171
 H         2.259891        -1.977628        -0.985826
 H         5.205768        -0.973219         0.259967
 H         4.911542         0.867186         0.093887
 H         2.944913        -1.050999         2.764592
 H         3.268557         0.740353         3.487691
 H         2.315170         1.599816         1.118693
