19
Iteration:   309charge 0 multiplicity 1
 C        -0.039293         0.209647        -0.078475
 C         1.422833        -0.139143         0.124634
 C         2.185517        -1.439054         0.087709
 C         3.152445        -0.220595         0.107797
 C         4.656324         0.004914         0.563396
 O         4.472978         0.283109         1.947421
 C         3.102879        -0.156706         2.451193
 C         2.325105         0.401550         1.228205
 O         2.335316         0.468758        -1.001727
 H        -0.673280        -0.484996         0.356963
 H        -0.209946         1.348613         0.310019
 H        -0.330238         0.248718        -1.220754
 H         2.123155        -2.117429         0.934206
 H         2.196003        -2.004893        -0.807168
 H         5.303295        -0.902053         0.481203
 H         5.096258         0.873400         0.036571
 H         3.031906        -1.160478         2.784563
 H         2.876797         0.557779         3.293206
 H         2.408715         1.526508         1.435833
