19
Iteration:  2678
 C        -0.039873         0.132633         0.019606
 C         1.387415        -0.105384         0.078412
 C         2.252814        -1.405419         0.020420
 C         3.254582        -0.190584         0.145672
 C         4.673985        -0.119802         0.535873
 O         4.431085         0.098751         1.967940
 C         3.039164         0.006265         2.400765
 C         2.319801         0.582624         1.173927
 O         2.358150         0.497367        -0.917620
 H        -0.575433        -0.144759         0.981455
 H        -0.206924         1.184003        -0.196095
 H        -0.692627        -0.298496        -0.830639
 H         2.015207        -1.971820         0.917434
 H         2.203058        -2.012007        -0.841879
 H         5.036383        -1.086527         0.328130
 H         5.402553         0.626134         0.069557
 H         2.677746        -1.139172         2.410416
 H         2.874190         0.625917         3.329577
 H         2.412977         1.717622         1.084139
