19
Iteration:  3102
 C        -0.095946         0.076779        -0.160163
 C         1.346281        -0.002572         0.183874
 C         2.240057        -1.311676         0.145582
 C         3.170675        -0.127833         0.055274
 C         4.594761         0.024328         0.482306
 O         4.540096        -0.099813         1.986458
 C         3.073515        -0.040206         2.508669
 C         2.434525         0.615776         1.224134
 O         2.315195         0.439708        -0.971338
 H        -0.759237         0.282532         0.680986
 H        -0.281597         0.832707        -0.934083
 H        -0.431043        -0.821580        -0.700248
 H         2.128045        -2.012530         1.013656
 H         2.131629        -2.020512        -0.749805
 H         5.325757        -0.890736         0.251814
 H         5.029305         1.020513         0.163412
 H         2.740810        -1.027467         2.793822
 H         3.297273         0.553187         3.384468
 H         2.395494         1.668789         1.132250
