19
Iteration:  2462
 C        -0.149992         0.228465        -0.229895
 C         1.354371        -0.086773         0.137132
 C         2.126817        -1.464394         0.137218
 C         3.226516        -0.183819         0.137512
 C         4.624163         0.047587         0.499541
 O         4.555341         0.056034         1.979504
 C         3.133389         0.010168         2.442951
 C         2.420593         0.492826         1.225062
 O         2.314645         0.403913        -0.911582
 H        -0.737177         0.000234         0.620600
 H        -0.260845         1.238741        -0.576114
 H        -0.352606        -0.528153        -1.029166
 H         2.063994        -2.054150         1.123762
 H         2.142486        -2.037104        -0.794467
 H         5.445442        -0.777061         0.488905
 H         4.798119         1.038041         0.151414
 H         2.926850        -1.050913         2.690566
 H         3.165810         0.467043         3.495989
 H         2.484867         1.653046         1.100944
