19
Iteration:  2358charge 0 multiplicity 1
 C        -0.137200        -0.028496         0.029537
 C         1.388918        -0.018317         0.077208
 C         2.289159        -1.315909         0.087924
 C         3.253892        -0.127780         0.081197
 C         4.643552        -0.239043         0.612421
 O         4.460955        -0.030562         2.069678
 C         3.023004         0.173551         2.389208
 C         2.442449         0.599238         1.050604
 O         2.257833         0.545817        -1.038278
 H        -0.320168        -0.928421         0.727980
 H        -0.474355         0.951119         0.494094
 H        -0.259617        -0.277862        -1.013270
 H         2.266683        -1.821761         1.057634
 H         2.223982        -2.058007        -0.694519
 H         5.138616        -1.151648         0.497602
 H         5.454921         0.517444         0.281290
 H         2.557004        -0.712638         2.765879
 H         3.029311         0.925520         3.111572
 H         2.459680         1.637778         0.879136
