19
Iteration:  3216charge 0 multiplicity 1
 C        -0.094146        -0.023612        -0.103466
 C         1.395144        -0.079281         0.232434
 C         2.216098        -1.308094         0.200914
 C         3.156849        -0.060031         0.106785
 C         4.663639        -0.039556         0.525217
 O         4.462367        -0.225260         1.940348
 C         3.104300         0.147584         2.396399
 C         2.350522         0.660487         1.206797
 O         2.368811         0.486207        -1.058812
 H        -0.558723        -0.891288         0.361932
 H        -0.564113         0.819927         0.328205
 H        -0.171528         0.069267        -1.178489
 H         2.385570        -2.017420         1.108172
 H         2.063609        -1.825208        -0.744008
 H         5.254366        -0.956756         0.318446
 H         5.271291         0.857432         0.183068
 H         2.555012        -0.756131         2.903301
 H         3.102557         0.990050         3.165071
 H         2.281090         1.798646         1.216674
