19
Iteration:  4908
 C        -0.274957         0.059769        -0.103941
 C         1.403371        -0.064569         0.127821
 C         2.340663        -1.294536        -0.128528
 C         3.227586        -0.047431         0.087099
 C         4.664012         0.018883         0.541686
 O         4.568184        -0.024474         2.004260
 C         3.014757        -0.261995         2.432702
 C         2.315164         0.367719         1.296293
 O         2.316561         0.729971        -0.828157
 H        -0.503152         1.145991        -0.591529
 H        -0.346075        -0.694465        -0.931949
 H        -0.820561        -0.153821         0.889288
 H         2.320220        -2.009067         0.658417
 H         2.547545        -1.742270        -1.130500
 H         5.238756        -0.838584         0.017505
 H         5.109291         1.035023         0.235704
 H         2.945825        -1.329198         2.639838
 H         3.082254         0.366058         3.350063
 H         2.407912         1.444659         1.566959
