19
Iteration:   431charge 0 multiplicity 1
 C        -0.079127        -0.117098        -0.000398
 C         1.446711        -0.148401         0.174619
 C         2.397308        -1.282954         0.078884
 C         3.241767         0.001322         0.005594
 C         4.632240         0.011852         0.653051
 O         4.291905        -0.424440         1.989469
 C         3.077650         0.206962         2.361103
 C         2.387266         0.706606         1.083962
 O         2.252002         0.580080        -0.969047
 H        -0.484718        -0.184754         1.010805
 H        -0.466873         0.911603        -0.336233
 H        -0.504372        -0.893374        -0.662168
 H         2.738798        -1.757561         1.025750
 H         2.324381        -1.871142        -0.820193
 H         5.493491        -0.579657         0.261706
 H         5.181000         0.968045         0.552311
 H         2.534992        -0.580557         2.894526
 H         3.379926         0.973284         3.123476
 H         2.271689         1.811512         0.889503
