19
Iteration:  4578charge 0 multiplicity 1
 C        -0.168825         0.102644        -0.088889
 C         1.378514        -0.108247         0.085191
 C         2.275444        -1.330588        -0.130676
 C         3.189820        -0.145676         0.180616
 C         4.684071         0.054755         0.561941
 O         4.503674         0.039236         1.996276
 C         3.071810        -0.280853         2.359475
 C         2.347498         0.440904         1.309844
 O         2.349081         0.693680        -0.813860
 H        -0.445806         1.108216        -0.335742
 H        -0.541289        -0.476752        -0.957281
 H        -0.647272        -0.157499         0.911560
 H         2.289857        -2.178576         0.556435
 H         2.157648        -1.645465        -1.153198
 H         5.230594        -0.810935         0.064287
 H         5.133114         1.047934         0.391148
 H         3.009635        -1.409815         2.269402
 H         2.907028         0.279632         3.385080
 H         2.350828         1.567397         1.181509
