19
Iteration:   198
 C        -0.086099         0.077260        -0.057582
 C         1.426627        -0.027416         0.107924
 C         2.362220        -1.333469         0.261438
 C         3.230634        -0.041977         0.079992
 C         4.596094         0.240002         0.579159
 O         4.367725        -0.377592         1.871290
 C         3.055586         0.038907         2.449486
 C         2.402634         0.622430         1.169749
 O         2.297117         0.374825        -1.055512
 H        -0.551867        -0.443917         0.841425
 H        -0.592553         1.071341        -0.181673
 H        -0.326116        -0.541799        -0.964074
 H         2.317330        -1.769520         1.209301
 H         2.451211        -2.089748        -0.561199
 H         5.430155        -0.245249         0.155519
 H         4.888208         1.315102         0.661600
 H         2.683311        -0.823388         2.910843
 H         3.241245         0.777295         3.282758
 H         2.391419         1.708925         1.052725
