19
Iteration:  4091
 C        -0.067335        -0.011505        -0.067881
 C         1.435935        -0.039416         0.042952
 C         2.246429        -1.362841         0.021889
 C         3.217660        -0.074445         0.135933
 C         4.621090         0.008105         0.598150
 O         4.510358        -0.219169         2.023004
 C         3.100662        -0.037317         2.479110
 C         2.366882         0.604505         1.197796
 O         2.226798         0.629489        -0.988251
 H        -0.381062        -0.934517        -0.511098
 H        -0.640114         0.318318         0.819576
 H        -0.315066         0.684993        -0.855044
 H         2.068874        -2.019806         0.931018
 H         2.296968        -1.726445        -1.034858
 H         5.344527        -0.670760         0.021637
 H         5.015385         1.048495         0.389018
 H         2.642791        -0.943636         2.835537
 H         3.073654         0.766818         3.345716
 H         2.469437         1.701307         1.161201
