19
Iteration:  3188
 C        -0.104344         0.017119         0.015304
 C         1.423985        -0.079443         0.044698
 C         2.292419        -1.371409         0.177465
 C         3.165469        -0.138880         0.135160
 C         4.637174        -0.000380         0.504409
 O         4.477092        -0.284799         2.024848
 C         3.023819         0.192155         2.432554
 C         2.390143         0.651280         1.090143
 O         2.321381         0.544716        -1.034869
 H        -0.497979        -0.816636         0.654824
 H        -0.418392         0.898975         0.635211
 H        -0.504222        -0.037487        -1.065641
 H         2.279539        -1.868377         1.116911
 H         2.401966        -1.888350        -0.805493
 H         5.393243        -0.814892         0.294450
 H         5.088767         0.925376         0.151932
 H         2.496700        -0.657437         2.804041
 H         3.107129         0.972916         3.149421
 H         2.359467         1.713191         0.975671
