19
Iteration:  3462charge 0 multiplicity 1
 C        -0.152136         0.090230        -0.021965
 C         1.441077        -0.049626         0.080314
 C         2.250909        -1.462586         0.104762
 C         3.170293        -0.190718         0.098526
 C         4.631854        -0.003393         0.556491
 O         4.403004        -0.147910         1.975385
 C         3.084956         0.248444         2.453585
 C         2.457340         0.640617         1.144391
 O         2.345770         0.383117        -0.971364
 H        -0.695176        -0.830256         0.112705
 H        -0.429825         0.955529         0.699532
 H        -0.484245         0.343816        -0.990764
 H         2.421610        -2.145215         0.991639
 H         2.135397        -1.861282        -0.909342
 H         5.386435        -0.750168         0.217733
 H         5.132271         1.052175         0.371162
 H         2.677369        -0.639375         2.902071
 H         3.392962         1.009044         3.209597
 H         2.295423         1.655160         0.889015
