19
Iteration:   312
 C        -0.034274         0.233341        -0.102092
 C         1.424627        -0.174048         0.124653
 C         2.186495        -1.443241         0.089671
 C         3.152977        -0.235431         0.099577
 C         4.616105         0.016637         0.554164
 O         4.499867         0.276427         1.964246
 C         3.110555        -0.120663         2.462380
 C         2.295825         0.395083         1.243862
 O         2.343582         0.479300        -1.014905
 H        -0.670979        -0.494979         0.463285
 H        -0.144770         1.283380         0.363315
 H        -0.353657         0.325476        -1.171762
 H         2.136001        -2.171482         1.016383
 H         2.286012        -1.993964        -0.888669
 H         5.332845        -0.909698         0.360495
 H         5.084729         0.846577         0.026669
 H         2.989720        -1.204323         2.794625
 H         2.867196         0.511578         3.298822
 H         2.375027         1.499483         1.429487
