19
Iteration:  1212
 C         0.002944         0.072607        -0.018783
 C         1.413814        -0.201962         0.057663
 C         2.334029        -1.369717         0.059921
 C         3.150074        -0.096145         0.121454
 C         4.630552         0.137004         0.561423
 O         4.337111        -0.323473         1.912395
 C         3.139753         0.182207         2.512194
 C         2.253476         0.583181         1.166422
 O         2.357674         0.485109        -0.975546
 H        -0.422418        -0.092327         0.938539
 H        -0.108486         1.266703        -0.222272
 H        -0.550755        -0.515516        -0.759533
 H         2.251010        -1.985928         0.994736
 H         2.494111        -1.971352        -0.851812
 H         5.374701        -0.514597         0.155354
 H         4.872371         1.209708         0.424342
 H         2.728941        -0.547348         3.178658
 H         3.518755         1.006147         3.114999
 H         2.050187         1.694159         1.059982
