19
Iteration:  4922
 C        -0.123720         0.008054        -0.115930
 C         1.333841        -0.035507         0.108079
 C         2.313550        -1.269694        -0.161232
 C         3.176739        -0.054163         0.151956
 C         4.620707         0.079026         0.578364
 O         4.531640        -0.103458         2.003903
 C         3.119378        -0.253716         2.429172
 C         2.371169         0.492394         1.275367
 O         2.302788         0.681329        -0.819466
 H        -0.444612         0.953627        -0.676497
 H        -0.617077        -0.888092        -0.609825
 H        -0.680551        -0.066451         0.896383
 H         2.382841        -2.211125         0.426809
 H         2.151299        -1.489007        -1.162222
 H         5.278320        -0.791141         0.277574
 H         5.165061         1.095142         0.266880
 H         2.822973        -1.307077         2.447405
 H         2.944304         0.180232         3.354461
 H         2.335494         1.527244         1.199864
