19
Iteration:  3682charge 0 multiplicity 1
 C        -0.099090         0.130195        -0.075338
 C         1.333947        -0.165730         0.011124
 C         2.260968        -1.318782         0.034804
 C         3.205718        -0.121611         0.157044
 C         4.740263        -0.175666         0.617536
 O         4.547069         0.065100         1.969944
 C         3.079808         0.034981         2.417747
 C         2.325812         0.502458         1.180662
 O         2.235998         0.553729        -0.897659
 H        -0.212574         0.978725        -0.790855
 H        -0.569214        -0.759688        -0.532151
 H        -0.460394         0.339632         0.851368
 H         2.288847        -2.115224         0.868705
 H         2.277124        -1.813313        -1.005976
 H         5.234917        -1.086184         0.278757
 H         5.126018         0.629672         0.119447
 H         2.807907        -1.015746         2.916440
 H         2.923287         0.557900         3.436194
 H         2.311266         1.597246         1.132024
