19
Iteration:  1234
 C        -0.147752         0.088692        -0.001398
 C         1.366312        -0.131883         0.117389
 C         2.441871        -1.336336         0.162089
 C         3.205601         0.004589         0.068836
 C         4.667188         0.034212         0.599769
 O         4.416046        -0.321272         1.981363
 C         2.996073         0.139667         2.359419
 C         2.359169         0.566752         1.098431
 O         2.313669         0.475128        -1.017903
 H        -0.417225        -0.501586         0.833800
 H        -0.426206         1.274396         0.274830
 H        -0.572707        -0.347772        -0.927158
 H         2.673622        -1.902619         1.105090
 H         2.483710        -1.955739        -0.755970
 H         5.338464        -0.678085         0.176205
 H         5.039650         1.083074         0.483892
 H         2.540638        -0.666100         2.942623
 H         3.203810         0.970622         3.059240
 H         2.221324         1.699640         1.082445
