19
Iteration:  1604charge 0 multiplicity 1
 C         0.003544         0.163432        -0.117864
 C         1.362715        -0.112464         0.137267
 C         2.271970        -1.411139         0.077841
 C         3.177126        -0.146228         0.116510
 C         4.664888        -0.176299         0.469115
 O         4.439678         0.213644         1.923016
 C         3.061412        -0.029309         2.446948
 C         2.289727         0.462567         1.219400
 O         2.342771         0.518926        -0.842049
 H        -0.425162        -0.557518         0.527596
 H        -0.265321         1.246304        -0.008409
 H        -0.129357        -0.035700        -1.211862
 H         2.126222        -2.149546         0.900805
 H         2.306054        -1.929625        -0.917423
 H         5.078349        -1.144581         0.371808
 H         5.247996         0.671977         0.005527
 H         2.935151        -1.073156         2.811065
 H         3.055528         0.546944         3.372766
 H         1.998737         1.544561         1.217094
