19
Iteration:   584charge 0 multiplicity 1
 C        -0.033005         0.183153        -0.060460
 C         1.438638        -0.188490         0.170392
 C         2.243088        -1.434133        -0.159233
 C         3.132997        -0.184107         0.089658
 C         4.605157        -0.148321         0.572391
 O         4.516927         0.254273         1.999324
 C         3.148280         0.060241         2.482111
 C         2.264499         0.372258         1.262838
 O         2.326339         0.528262        -0.942363
 H        -0.691355        -0.241276         0.819725
 H        -0.142959         1.272542        -0.105222
 H        -0.433150        -0.287375        -0.936458
 H         2.261872        -2.299836         0.514201
 H         2.057240        -1.728988        -1.188170
 H         5.033308        -1.137261         0.689742
 H         5.237613         0.779721         0.176340
 H         3.079180        -1.046079         2.763536
 H         3.014618         0.683049         3.372834
 H         1.924526         1.403986         1.242452
