19
Iteration:   939
 C        -0.107803         0.008945         0.118844
 C         1.425531        -0.079989         0.136919
 C         2.423697        -1.319727         0.114873
 C         3.243694        -0.005484         0.070261
 C         4.654049         0.169916         0.617538
 O         4.323115        -0.456182         1.921076
 C         3.002200         0.100780         2.387536
 C         2.375532         0.679133         1.096005
 O         2.315358         0.483391        -1.069195
 H        -0.547853        -0.366814         0.992269
 H        -0.574701         1.101901        -0.169098
 H        -0.410413        -0.690787        -0.722222
 H         2.186120        -2.032114         0.924437
 H         2.688565        -1.924137        -0.753337
 H         5.508342        -0.436353         0.231422
 H         5.057061         1.204946         0.677208
 H         2.532827        -0.852747         2.889299
 H         3.155840         0.933834         3.091838
 H         2.407150         1.809591         1.246595
