19
Iteration:  2732
 C        -0.054609         0.188890        -0.032503
 C         1.378593        -0.106595         0.077651
 C         2.203274        -1.429958         0.086318
 C         3.180426        -0.216550         0.106193
 C         4.640054        -0.112586         0.544763
 O         4.494908         0.082276         1.947797
 C         3.080825         0.046415         2.428837
 C         2.318615         0.520215         1.168586
 O         2.393823         0.502077        -0.915393
 H        -0.550014        -0.788120         0.244240
 H        -0.327887         0.968206         0.672420
 H        -0.390749         0.463376        -1.095303
 H         2.154494        -2.125461         0.939543
 H         2.174119        -2.045517        -0.787660
 H         5.317341        -0.898642         0.197902
 H         5.000168         0.837966        -0.004873
 H         2.703816        -1.014895         2.862415
 H         2.846351         0.771695         3.244271
 H         2.316862         1.644175         1.201904
