19
Iteration:  2925charge 0 multiplicity 1
 C        -0.085244         0.055209        -0.222364
 C         1.363039        -0.057211         0.178619
 C         2.198275        -1.299010         0.124875
 C         3.182550        -0.130344         0.137054
 C         4.661396         0.011695         0.529801
 O         4.531956        -0.233782         1.972126
 C         3.155117         0.159741         2.445106
 C         2.395615         0.603821         1.232907
 O         2.259031         0.460335        -0.954443
 H        -0.710745        -0.504253         0.545279
 H        -0.536975         0.990734        -0.317771
 H        -0.272623        -0.649528        -1.108269
 H         2.151329        -1.967700         1.053200
 H         2.067242        -1.844044        -0.824187
 H         5.350160        -0.835545         0.163123
 H         5.015753         0.993310         0.393675
 H         2.591181        -0.665672         3.074809
 H         3.370090         0.916650         3.238140
 H         2.298150         1.647580         0.940544
