19
Iteration:   621
 C        -0.037333         0.148939        -0.029090
 C         1.389350        -0.040213         0.075602
 C         2.272340        -1.432273         0.128810
 C         3.207471        -0.212328         0.084046
 C         4.627137         0.007683         0.527635
 O         4.457334         0.109566         2.051613
 C         3.078913        -0.108869         2.334689
 C         2.324915         0.556223         1.184046
 O         2.325921         0.504681        -0.967075
 H        -0.372043        -0.351110         0.889080
 H        -0.509910         1.117929        -0.017785
 H        -0.422584        -0.478847        -0.874665
 H         2.227434        -1.973974         1.070983
 H         2.211182        -2.063385        -0.779077
 H         5.417440        -0.807088         0.350818
 H         4.986722         0.843665        -0.062609
 H         2.874907        -1.219872         2.408130
 H         2.822362         0.270142         3.321531
 H         2.305584         1.651295         1.223985
