19
Iteration:  2148charge 0 multiplicity 1
 C        -0.023174         0.219814        -0.169191
 C         1.359898        -0.153486         0.076197
 C         2.220049        -1.436821         0.129940
 C         3.175555        -0.214127         0.145466
 C         4.602054         0.000849         0.462346
 O         4.513533         0.138030         2.001081
 C         3.172043         0.030563         2.469492
 C         2.302937         0.478867         1.269150
 O         2.302269         0.397790        -0.934724
 H        -0.700921        -0.453111         0.313683
 H        -0.296371         1.299737         0.184915
 H        -0.204625         0.076847        -1.307913
 H         2.284864        -1.963789         1.069371
 H         2.095786        -2.116424        -0.709081
 H         5.152572        -0.860698         0.019420
 H         5.086170         0.990393         0.061624
 H         2.958826        -1.061073         2.799164
 H         2.856664         0.709662         3.246806
 H         2.428175         1.534725         1.215561
