19
Iteration:   407charge 0 multiplicity 1
 C        -0.049522        -0.168224         0.025198
 C         1.469591        -0.006969         0.164354
 C         2.376910        -1.264636         0.142513
 C         3.195821         0.066951         0.079242
 C         4.621008        -0.058399         0.481047
 O         4.382863        -0.316272         1.960964
 C         2.925724         0.097814         2.401793
 C         2.314677         0.726130         1.196998
 O         2.370678         0.529807        -1.035849
 H        -0.491445        -0.330854         0.921242
 H        -0.629879         0.785136        -0.397840
 H        -0.206872        -1.021502        -0.714935
 H         2.311207        -1.695655         1.117432
 H         2.580623        -1.866285        -0.720556
 H         5.117703        -0.875216        -0.009516
 H         5.443648         0.696152         0.227195
 H         2.493629        -0.728931         2.908938
 H         3.273133         0.885727         3.197668
 H         2.223296         1.858518         1.322007
