19
Iteration:   790charge 0 multiplicity 1
 C        -0.066890         0.172934        -0.038417
 C         1.340885        -0.170517         0.146112
 C         2.293029        -1.423687        -0.008990
 C         3.175045        -0.121729         0.070280
 C         4.675019        -0.019666         0.553122
 O         4.508015         0.132747         1.974884
 C         2.994318        -0.060690         2.453618
 C         2.366058         0.391581         1.177609
 O         2.317208         0.526759        -0.937127
 H        -0.644747        -0.103906         0.830266
 H        -0.154538         1.272307        -0.088154
 H        -0.464221        -0.274555        -0.904242
 H         2.280276        -2.009742         0.917505
 H         2.224158        -1.919497        -1.027037
 H         5.305930        -0.883408         0.420460
 H         5.086177         0.950764         0.304882
 H         2.924364        -1.118541         2.728182
 H         2.873573         0.640679         3.371296
 H         2.460734         1.514802         1.152653
