19
Iteration:  3284charge 0 multiplicity 1
 C        -0.050403         0.125011        -0.081904
 C         1.401276        -0.120629         0.095773
 C         2.200100        -1.419215         0.104944
 C         3.147845        -0.181075         0.134209
 C         4.552276         0.034490         0.546072
 O         4.534256        -0.039482         2.023738
 C         3.079581         0.081082         2.398526
 C         2.364924         0.558923         1.191698
 O         2.353428         0.442842        -0.974455
 H        -0.406871         0.173763         0.955253
 H        -0.171582         1.123077        -0.377809
 H        -0.660562        -0.551690        -0.749671
 H         2.142576        -2.158156         0.962051
 H         2.340050        -1.794679        -0.944612
 H         5.159256        -0.688143         0.090552
 H         4.888830         1.034705         0.064743
 H         2.771572        -1.008732         2.739661
 H         3.324796         0.629142         3.320979
 H         2.487693         1.677215         1.032897
