19
Iteration:  1717charge 0 multiplicity 1
 C        -0.096630        -0.006512         0.027677
 C         1.401976        -0.108903         0.059798
 C         2.380062        -1.357441         0.107896
 C         3.225863        -0.036541         0.055064
 C         4.714376        -0.000825         0.607895
 O         4.432067        -0.270092         2.070760
 C         3.048925         0.131306         2.330227
 C         2.332003         0.629762         1.079152
 O         2.253477         0.540752        -1.001189
 H        -0.472231        -0.234327         1.007753
 H        -0.399168         1.039225        -0.223315
 H        -0.689086        -0.560265        -0.700303
 H         2.294600        -1.936228         1.014346
 H         2.286696        -1.975349        -0.762767
 H         5.384551        -0.801381         0.341764
 H         5.178294         1.003397         0.449184
 H         2.554979        -0.664236         2.791405
 H         3.014241         0.947548         3.047946
 H         2.225896         1.671880         1.255104
