19
Iteration:  4161
 C        -0.061343         0.073909        -0.068846
 C         1.369008        -0.074474         0.073433
 C         2.420507        -1.373610         0.102264
 C         3.236429         0.026755         0.039030
 C         4.675871         0.114244         0.572723
 O         4.433620        -0.341735         1.976213
 C         2.996576        -0.035080         2.448886
 C         2.358778         0.535949         1.190164
 O         2.220104         0.635602        -0.946510
 H        -0.619034        -0.759511         0.471550
 H        -0.445638         1.076123         0.075187
 H        -0.413115        -0.190445        -1.130021
 H         2.455868        -1.994243         1.007966
 H         2.316856        -1.953217        -0.819952
 H         5.473848        -0.636708         0.265295
 H         5.195395         1.129096         0.441905
 H         2.731962        -1.022176         2.847777
 H         3.062471         0.643346         3.306616
 H         2.253340         1.628911         1.315839
