19
Iteration:  2543charge 0 multiplicity 1
 C        -0.017417         0.033169         0.111080
 C         1.462124        -0.029643         0.019696
 C         2.263791        -1.401750         0.107673
 C         3.271604        -0.122360         0.044168
 C         4.656064        -0.015853         0.600210
 O         4.360191        -0.262531         2.072201
 C         3.031739         0.195238         2.413281
 C         2.407556         0.626632         1.058700
 O         2.207361         0.538903        -1.092428
 H        -0.389169        -0.821499         0.734501
 H        -0.481591         0.977863         0.423484
 H        -0.388614        -0.173521        -0.867845
 H         2.288548        -1.925597         1.064293
 H         2.314693        -2.136915        -0.738815
 H         5.392654        -0.765261         0.368859
 H         5.271659         0.851409         0.608230
 H         2.588566        -0.691137         3.030713
 H         3.237925         1.014810         3.010675
 H         2.596196         1.657325         0.974529
