19
Iteration:  4260
 C        -0.056950         0.066150        -0.102054
 C         1.437263        -0.025607         0.168969
 C         2.254986        -1.284017        -0.070407
 C         3.204921        -0.010060         0.074400
 C         4.590086        -0.020849         0.596739
 O         4.491025        -0.041978         2.030425
 C         3.089272        -0.231918         2.420128
 C         2.340231         0.467552         1.268687
 O         2.274225         0.616168        -0.955139
 H        -0.522060         0.804501         0.557625
 H        -0.303223         0.389144        -1.109103
 H        -0.628131        -0.968011         0.050911
 H         2.586989        -2.130307         0.621800
 H         2.336828        -1.557866        -1.096326
 H         5.298651        -0.838826         0.284565
 H         5.226445         0.896464         0.276956
 H         2.896896        -1.268869         2.677820
 H         2.906457         0.245479         3.375125
 H         2.063597         1.551341         1.433445
