19
Iteration:   521
 C        -0.031712         0.052539        -0.171577
 C         1.378494        -0.092726         0.165578
 C         2.162775        -1.380244         0.121070
 C         3.158956        -0.073311         0.164717
 C         4.574283        -0.050524         0.568431
 O         4.520208         0.160486         2.030332
 C         3.159602        -0.124426         2.413446
 C         2.420660         0.588034         1.218386
 O         2.290257         0.501489        -1.004890
 H        -0.614042        -0.805305         0.424582
 H        -0.386092         0.989949         0.010529
 H        -0.160879        -0.136028        -1.206154
 H         2.115189        -2.180823         0.890005
 H         2.155381        -1.891245        -0.870082
 H         4.960073        -1.045893         0.187051
 H         5.198842         0.727509         0.076985
 H         2.932488        -1.243978         2.287340
 H         2.976348         0.169709         3.369111
 H         2.405347         1.645127         1.221941
