19
Iteration:  4242
 C        -0.124025         0.102364        -0.087275
 C         1.391979        -0.148283         0.038319
 C         2.375653        -1.307971        -0.048156
 C         3.205615        -0.066888         0.132983
 C         4.735116         0.017761         0.576596
 O         4.492196        -0.088410         2.043218
 C         3.028986        -0.158520         2.407915
 C         2.347515         0.482956         1.221092
 O         2.187735         0.673926        -0.885130
 H        -0.488370         0.708071         0.738926
 H        -0.360669         0.675165        -1.052813
 H        -0.596216        -0.920571        -0.197426
 H         2.172761        -1.886524         0.827194
 H         2.357565        -1.821816        -1.003641
 H         5.247254        -0.811241         0.132433
 H         5.293021         0.960742         0.337291
 H         2.760846        -1.286779         2.554394
 H         3.088229         0.263123         3.403400
 H         2.538439         1.537762         1.388919
