19
Iteration:  3822charge 0 multiplicity 1
 C        -0.157794        -0.056126        -0.025471
 C         1.348127        -0.012772         0.095104
 C         2.265555        -1.282664         0.018288
 C         3.211106        -0.006922         0.024794
 C         4.594997         0.048605         0.591035
 O         4.473903        -0.307347         2.010644
 C         3.053544         0.053760         2.434150
 C         2.397671         0.541176         1.198569
 O         2.405257         0.583198        -1.002649
 H        -0.531742        -1.078521        -0.408692
 H        -0.580245         0.024873         1.033468
 H        -0.408249         0.854093        -0.544943
 H         2.301996        -1.964144         0.874969
 H         2.237075        -1.886287        -0.913558
 H         5.243199        -0.691786         0.126162
 H         5.159394         1.083565         0.676796
 H         2.751806        -0.745170         2.966628
 H         3.205944         0.784320         3.179828
 H         2.422066         1.619274         1.388519
