19
Iteration:  3648
 C        -0.083823         0.080989        -0.025680
 C         1.390822        -0.048764         0.218894
 C         2.160416        -1.318639         0.042433
 C         3.188011        -0.153036         0.048715
 C         4.635598        -0.170125         0.552354
 O         4.459715         0.191275         1.948264
 C         3.039271        -0.081627         2.481746
 C         2.349873         0.518512         1.218047
 O         2.444918         0.496606        -1.002490
 H        -0.420788         1.100082        -0.131882
 H        -0.238909        -0.476849        -0.985813
 H        -0.537419        -0.404625         0.781898
 H         2.334022        -2.138226         0.839681
 H         2.002999        -1.719165        -0.975159
 H         5.152333        -1.090056         0.328274
 H         5.162724         0.620576         0.094050
 H         2.933813        -1.222440         2.550108
 H         2.944965         0.632529         3.346236
 H         2.456845         1.612623         1.135761
