19
Iteration:  1008
 C        -0.194166        -0.006652        -0.188097
 C         1.386634        -0.092493         0.160987
 C         2.214526        -1.373352         0.079989
 C         3.132343        -0.093565         0.071757
 C         4.633038        -0.031468         0.594591
 O         4.585202        -0.155908         2.028112
 C         3.164214         0.059508         2.474805
 C         2.368687         0.587339         1.235663
 O         2.315171         0.619863        -0.975694
 H        -0.883549        -0.312174         0.680203
 H        -0.431547         1.026985        -0.629542
 H        -0.304068        -0.713129        -0.995860
 H         2.174387        -2.082810         0.808543
 H         2.295084        -1.895534        -0.852500
 H         5.368388        -0.711893         0.144631
 H         5.013101         0.979412         0.378046
 H         2.678292        -0.855900         2.697682
 H         3.204820         0.757122         3.344204
 H         2.444102         1.631394         0.987753
