19
Iteration:  1467charge 0 multiplicity 1
 C        -0.022105        -0.023458        -0.113114
 C         1.387503        -0.140236         0.228858
 C         2.254923        -1.294763         0.244533
 C         3.176243        -0.053155         0.016268
 C         4.634298         0.054239         0.462502
 O         4.326425        -0.301845         1.933028
 C         3.085462         0.164403         2.417221
 C         2.368986         0.589548         1.154467
 O         2.427772         0.550256        -0.952274
 H        -0.547925        -0.766102         0.499992
 H        -0.571365         0.807507         0.139398
 H        -0.146475        -0.376355        -1.132965
 H         2.233061        -1.719761         1.247119
 H         2.157475        -1.970114        -0.598511
 H         5.333254        -0.680876        -0.015973
 H         4.965634         1.044248         0.488681
 H         2.596494        -0.633301         3.157518
 H         3.398273         0.947142         3.156879
 H         2.315602         1.646113         0.984485
