19
Iteration:   477
 C        -0.084410         0.067783        -0.033200
 C         1.393179        -0.212484         0.058871
 C         2.336689        -1.416349         0.056257
 C         3.154881        -0.036507         0.002869
 C         4.545125         0.083610         0.581662
 O         4.470001        -0.232855         2.023991
 C         3.112912         0.153545         2.444515
 C         2.340155         0.552555         1.211324
 O         2.357213         0.519943        -0.966628
 H        -0.705348        -0.367698         0.894188
 H        -0.157543         1.104444        -0.018886
 H        -0.457375        -0.212518        -0.984825
 H         2.183966        -2.029326         0.977097
 H         2.377703        -2.010666        -0.889920
 H         5.454977        -0.443364         0.221062
 H         4.936921         1.072181         0.457743
 H         2.669927        -0.753769         2.989618
 H         3.100895         0.976372         3.083072
 H         2.204943         1.593251         1.035262
