19
Iteration:  3893
 C        -0.144702         0.143927        -0.070225
 C         1.372466        -0.185618         0.124361
 C         2.274393        -1.415640        -0.015252
 C         3.166882        -0.040476         0.054107
 C         4.639774         0.052589         0.630112
 O         4.560133        -0.135779         1.997687
 C         3.092991        -0.000511         2.390882
 C         2.215797         0.507997         1.233320
 O         2.417405         0.554460        -0.953885
 H        -0.720575        -0.459418        -0.751740
 H        -0.740200         0.035333         0.841196
 H        -0.213524         1.282487        -0.322731
 H         2.347695        -2.153162         0.883035
 H         2.172224        -1.983328        -0.950359
 H         5.288253        -0.800622         0.203759
 H         5.033902         1.069766         0.297836
 H         2.864560        -1.014657         2.964193
 H         3.146129         0.796430         3.252962
 H         2.200430         1.614958         1.263540
