19
Iteration:  2560
 C        -0.100337         0.050131         0.063659
 C         1.418582        -0.101430         0.101408
 C         2.326519        -1.296491         0.104254
 C         3.223801        -0.148073         0.055841
 C         4.615734         0.038252         0.599778
 O         4.367323        -0.335935         1.963203
 C         3.004842         0.221921         2.381503
 C         2.407587         0.639422         1.113411
 O         2.393712         0.437481        -0.986549
 H        -0.320718        -0.619175         0.890353
 H        -0.231084         1.154428         0.225237
 H        -0.665433        -0.219172        -0.877125
 H         2.276537        -1.886860         1.053264
 H         2.256670        -1.802217        -0.853899
 H         5.413917        -0.684907         0.165342
 H         4.799984         1.147759         0.373594
 H         2.548658        -0.613113         2.850204
 H         3.147756         1.118666         3.125921
 H         2.263144         1.757460         0.930160
