19
Iteration:  1799charge 0 multiplicity 1
 C        -0.095336         0.016847        -0.196386
 C         1.361490        -0.026075         0.137333
 C         2.393429        -1.318434         0.204702
 C         3.191365        -0.049646         0.121948
 C         4.682535         0.034178         0.526465
 O         4.472876        -0.254296         1.964293
 C         3.090586         0.086738         2.423227
 C         2.364254         0.609966         1.186393
 O         2.194976         0.459633        -0.942462
 H        -0.785101         0.064037         0.709851
 H        -0.329118         1.004073        -0.704773
 H        -0.421080        -0.893674        -0.779248
 H         2.413921        -1.772696         1.216137
 H         2.153825        -1.879634        -0.700343
 H         5.363472        -0.827543         0.258881
 H         5.078721         1.016614         0.300294
 H         2.806271        -0.907686         2.717731
 H         3.107083         0.811132         3.222198
 H         2.489105         1.688425         1.117910
