19
Iteration:   955charge 0 multiplicity 1
 C        -0.124083        -0.015591         0.016274
 C         1.394719        -0.153644         0.141843
 C         2.446079        -1.237755         0.138261
 C         3.207252         0.061137         0.032475
 C         4.627548         0.092160         0.625434
 O         4.338503        -0.449393         1.930354
 C         3.078413         0.088841         2.386878
 C         2.324478         0.629680         1.133028
 O         2.361767         0.508730        -1.027500
 H        -0.441220        -0.038960         1.139958
 H        -0.241710         0.977880        -0.222037
 H        -0.712478        -0.664200        -0.586490
 H         2.853669        -1.695623         1.027483
 H         2.181816        -1.840871        -0.743543
 H         5.316409        -0.564924         0.130973
 H         4.930654         1.127017         0.766110
 H         2.478679        -0.584968         2.829659
 H         3.302645         0.920528         3.088776
 H         2.098205         1.658979         0.976121
