19
Iteration:   202
 C        -0.079678         0.055064        -0.060725
 C         1.424965        -0.020519         0.111233
 C         2.323354        -1.361386         0.220582
 C         3.243077        -0.020817         0.072401
 C         4.618616         0.219145         0.585753
 O         4.356934        -0.349804         1.898552
 C         3.071060         0.033495         2.450707
 C         2.418042         0.626788         1.191008
 O         2.279763         0.374102        -1.056558
 H        -0.645335        -0.325272         0.711905
 H        -0.617002         1.050563        -0.176480
 H        -0.355896        -0.606071        -0.927547
 H         2.466110        -1.884323         1.283786
 H         2.283165        -1.959909        -0.713927
 H         5.578198        -0.219302         0.130316
 H         4.933543         1.233413         0.671784
 H         2.677993        -0.864742         3.040608
 H         3.311664         0.867459         3.161891
 H         2.368438         1.761531         1.037645
