19
Iteration:  4709
 C        -0.073344         0.033397        -0.054020
 C         1.487057        -0.071000         0.056082
 C         2.420467        -1.305168        -0.028921
 C         3.162209         0.029833         0.119847
 C         4.613799         0.178116         0.541200
 O         4.438585        -0.395250         1.973370
 C         3.070337        -0.141635         2.430231
 C         2.343805         0.507657         1.246193
 O         2.211415         0.677895        -0.894150
 H        -0.289624         1.077425        -0.427080
 H        -0.562820        -0.742152        -0.701560
 H        -0.569698        -0.188321         0.932382
 H         2.529069        -1.877274         0.838218
 H         2.531100        -1.693768        -0.991971
 H         5.324805        -0.599534         0.020835
 H         5.051550         1.232208         0.431301
 H         2.583959        -0.943371         2.872335
 H         2.958340         0.666122         3.247581
 H         2.174765         1.602800         1.334675
