19
Iteration:  4356charge 0 multiplicity 1
 C        -0.091920         0.116680        -0.055833
 C         1.364479        -0.075343         0.031157
 C         2.394476        -1.353307        -0.042858
 C         3.225600        -0.043414         0.127770
 C         4.612808         0.108236         0.543235
 O         4.452403        -0.139020         1.949692
 C         3.039171        -0.231661         2.408606
 C         2.332866         0.437042         1.264336
 O         2.323235         0.710429        -0.828914
 H        -0.242819         0.935356        -0.831370
 H        -0.532943        -0.764797        -0.522058
 H        -0.608204         0.192588         0.866485
 H         2.216618        -2.146128         0.796826
 H         2.459079        -1.909266        -1.005849
 H         5.265182        -0.678935         0.050714
 H         5.104966         1.018336         0.457667
 H         2.710709        -1.264572         2.670090
 H         2.939592         0.303946         3.457402
 H         2.174800         1.516661         1.364674
