19
Iteration:   264
 C        -0.108277        -0.019563        -0.051874
 C         1.399011        -0.099844         0.076641
 C         2.214495        -1.323282        -0.033600
 C         3.184877        -0.060198         0.135221
 C         4.612103        -0.216446         0.607113
 O         4.533120         0.140942         1.981315
 C         3.131642         0.033547         2.485866
 C         2.294861         0.499445         1.207439
 O         2.343186         0.569114        -0.974947
 H        -0.543742        -0.458146         0.844317
 H        -0.481520         1.032389        -0.313338
 H        -0.319013        -0.676419        -0.970665
 H         2.188160        -1.946568         0.812380
 H         2.268773        -1.892752        -0.944536
 H         4.938217        -1.227935         0.339808
 H         5.340002         0.524461         0.175148
 H         2.871700        -0.934600         2.792968
 H         3.084861         0.706048         3.373770
 H         2.314358         1.598663         1.218691
