19
Iteration:  4416charge 0 multiplicity 1
 C        -0.073513         0.007080        -0.083803
 C         1.417177        -0.106986         0.067472
 C         2.416572        -1.270950        -0.055358
 C         3.165264        -0.008446         0.068940
 C         4.622796         0.110075         0.573433
 O         4.452239        -0.364796         1.967942
 C         3.057108        -0.079099         2.435913
 C         2.367361         0.536531         1.223590
 O         2.236237         0.695156        -0.830464
 H        -0.382350         1.038179        -0.231227
 H        -0.350060        -0.669983        -0.923339
 H        -0.633770        -0.175139         0.861244
 H         2.565704        -1.841930         0.920440
 H         2.286653        -1.798937        -1.051747
 H         5.363775        -0.583830         0.192013
 H         5.099385         1.160024         0.719039
 H         2.499416        -1.000369         2.604440
 H         3.076912         0.533459         3.277914
 H         2.209464         1.627582         1.221548
