19
Iteration:   342charge 0 multiplicity 1
 C        -0.098737         0.270054        -0.116470
 C         1.360159        -0.222677         0.103734
 C         2.293831        -1.522249        -0.010279
 C         3.210596        -0.235803         0.203087
 C         4.606091         0.094827         0.548121
 O         4.494670         0.082145         1.928622
 C         3.109024         0.035145         2.451121
 C         2.318365         0.444932         1.238067
 O         2.304729         0.423728        -0.881003
 H        -0.809493        -0.226582         0.441162
 H        -0.138453         1.390431         0.294681
 H        -0.296351         0.203239        -1.261329
 H         2.251227        -2.268302         0.770052
 H         2.495301        -1.773391        -1.006691
 H         5.341826        -0.632922         0.197560
 H         4.975861         1.040742         0.117931
 H         2.865665        -0.861075         2.946142
 H         3.000343         0.893722         3.168299
 H         2.355167         1.597735         1.118253
