19
Iteration:  2047
 C        -0.049439        -0.043980         0.115456
 C         1.446914        -0.039091         0.063780
 C         2.360692        -1.343689        -0.017542
 C         3.311312        -0.045112         0.081595
 C         4.698897        -0.039580         0.616197
 O         4.324435        -0.281922         2.046697
 C         3.040106         0.202185         2.409621
 C         2.384042         0.640188         1.102017
 O         2.209962         0.500119        -1.033371
 H        -0.315893        -0.267272         1.194909
 H        -0.524585         0.843191        -0.215397
 H        -0.506924        -0.744030        -0.613498
 H         2.507745        -1.956536         0.883407
 H         2.174073        -2.014334        -0.868482
 H         5.318039        -0.828586         0.348676
 H         5.116243         0.998130         0.314170
 H         2.262349        -0.495409         2.790407
 H         3.133410         1.076903         3.043501
 H         2.397743         1.756795         1.003911
