19
Iteration:  4484charge 0 multiplicity 1
 C        -0.030490        -0.032083        -0.060320
 C         1.459543        -0.041163         0.098251
 C         2.277138        -1.245347        -0.028637
 C         3.279172        -0.011357         0.014003
 C         4.660902         0.127164         0.608786
 O         4.428464        -0.343322         1.991691
 C         3.095094        -0.087445         2.468436
 C         2.348103         0.516666         1.194764
 O         2.178870         0.653517        -0.917293
 H        -0.557196         0.687975         0.682317
 H        -0.307064         0.307099        -1.094953
 H        -0.377187        -1.017091         0.159066
 H         2.277670        -1.812270         0.888503
 H         1.998509        -1.871203        -0.966319
 H         5.477456        -0.519842         0.254353
 H         4.928886         1.270238         0.631130
 H         2.653674        -1.047531         2.639624
 H         3.086929         0.545488         3.284057
 H         2.450863         1.610727         1.338137
