19
Iteration:   601
 C        -0.169891         0.159633        -0.021183
 C         1.314458        -0.197838         0.134483
 C         2.252472        -1.406873        -0.020157
 C         3.231805        -0.130261         0.067154
 C         4.688544        -0.060516         0.603571
 O         4.467568         0.234618         1.990196
 C         3.079531        -0.104797         2.420109
 C         2.375733         0.437706         1.198575
 O         2.349869         0.500813        -0.949460
 H        -0.707994        -0.040468         0.816663
 H        -0.127746         1.339739        -0.027767
 H        -0.534174        -0.295931        -0.996008
 H         2.280887        -2.156589         0.796866
 H         2.366790        -1.842774        -1.027119
 H         5.099772        -1.081228         0.382388
 H         5.218215         0.743725         0.235062
 H         2.958805        -1.127687         2.753130
 H         2.928632         0.609841         3.323395
 H         2.589462         1.563201         1.053747
