19
Iteration:    57
 C        -0.062709         0.248713        -0.119874
 C         1.368411        -0.138295         0.077142
 C         2.242714        -1.492772         0.057472
 C         3.204309        -0.162162         0.119207
 C         4.663603         0.062801         0.538125
 O         4.479443         0.221785         1.991914
 C         3.094375        -0.083284         2.444087
 C         2.353469         0.384531         1.229364
 O         2.284255         0.416265        -0.914016
 H        -0.667319        -0.106837         0.593914
 H        -0.178061         1.382794        -0.129746
 H        -0.477272        -0.097332        -1.118827
 H         2.172437        -2.179360         0.896146
 H         2.337011        -2.138548        -0.874651
 H         5.244506        -0.868662         0.370322
 H         5.170683         0.931156         0.108249
 H         2.963890        -1.128110         2.693552
 H         2.864818         0.502895         3.358317
 H         2.404411         1.500143         1.264438
