19
Iteration:  1741charge 0 multiplicity 1
 C        -0.072951        -0.028214         0.038776
 C         1.423408        -0.045981         0.119934
 C         2.362974        -1.364778         0.014785
 C         3.232650        -0.098098         0.026529
 C         4.625089         0.048345         0.640423
 O         4.356329        -0.351297         1.965689
 C         3.047954         0.241494         2.466188
 C         2.422711         0.625587         1.113945
 O         2.292202         0.514555        -0.995720
 H        -0.614603         0.026715         1.065831
 H        -0.438519         0.730674        -0.631851
 H        -0.405542        -0.931013        -0.472007
 H         2.280708        -2.074833         0.832384
 H         2.161214        -1.878825        -0.930113
 H         5.575173        -0.516494         0.317801
 H         4.760852         1.099284         0.439174
 H         2.634405        -0.550164         2.956946
 H         3.137446         1.069023         3.209892
 H         2.455012         1.701346         1.192456
