19
Iteration:  2056charge 0 multiplicity 1
 C        -0.076959        -0.037511         0.066299
 C         1.408062        -0.131037         0.082111
 C         2.388191        -1.324314         0.013738
 C         3.201648        -0.030255         0.098014
 C         4.676090        -0.099025         0.623815
 O         4.423329        -0.280956         2.026609
 C         2.975915         0.243021         2.376499
 C         2.411727         0.706315         1.134649
 O         2.244159         0.514314        -1.038570
 H        -0.575314        -0.451082         1.081120
 H        -0.398403         0.982772        -0.003350
 H        -0.563123        -0.700882        -0.666655
 H         2.546379        -2.032115         0.885275
 H         2.305302        -1.835358        -0.981290
 H         5.333561        -0.909750         0.358044
 H         5.263274         0.938775         0.507165
 H         2.578883        -0.666885         2.791025
 H         3.111019         1.023363         3.147913
 H         2.324787         1.823770         0.877770
