19
Iteration:  2717
 C        -0.117518         0.204011         0.011143
 C         1.445039        -0.083838         0.111191
 C         2.222594        -1.389519         0.051273
 C         3.222531        -0.175375         0.031394
 C         4.654744        -0.056488         0.497931
 O         4.434017         0.112594         2.051574
 C         3.052255        -0.007158         2.482644
 C         2.419643         0.450017         1.197702
 O         2.296390         0.437128        -1.062746
 H        -0.788168        -0.572327         0.420365
 H        -0.281169         1.094671         0.624585
 H        -0.304180         0.327240        -1.065305
 H         2.199840        -1.902042         1.066970
 H         2.163695        -1.948302        -0.940866
 H         5.082336        -1.127750         0.606073
 H         5.347991         0.744428         0.291628
 H         2.892133        -0.960607         2.799911
 H         3.123072         0.617673         3.379107
 H         2.509544         1.472045         0.943191
