19
Iteration:  1550
 C        -0.054716         0.024750         0.033053
 C         1.414258        -0.066799         0.053636
 C         2.217596        -1.387205         0.014108
 C         3.208844        -0.179972         0.107924
 C         4.648050        -0.043804         0.580780
 O         4.439522         0.021240         1.993569
 C         2.970772         0.029789         2.418696
 C         2.416954         0.563711         1.194991
 O         2.376792         0.525966        -0.959055
 H        -0.455724         0.033978         1.046635
 H        -0.280675         1.025186        -0.599604
 H        -0.655439        -0.734387        -0.602310
 H         2.092881        -2.154384         0.798324
 H         2.132387        -1.827040        -1.004479
 H         5.296033        -0.838183         0.271743
 H         5.203902         0.894190         0.206820
 H         2.684623        -0.949308         2.666668
 H         3.069235         0.677562         3.279104
 H         2.418091         1.671433         1.100305
