19
Iteration:  1992
 C        -0.123777         0.052584        -0.045948
 C         1.417878        -0.108330         0.135385
 C         2.369174        -1.303607         0.199247
 C         3.178512         0.038049         0.133222
 C         4.633264         0.049728         0.546652
 O         4.421462        -0.255428         1.863957
 C         3.004737         0.061570         2.418902
 C         2.335778         0.601784         1.199318
 O         2.364836         0.401505        -1.030954
 H        -0.532176         0.199657         0.988117
 H        -0.204915         0.957371        -0.534540
 H        -0.471020        -0.838549        -0.510214
 H         2.449256        -1.937334         1.092412
 H         2.417758        -1.799667        -0.761346
 H         5.340561        -0.589141         0.160570
 H         5.000355         1.065866         0.245263
 H         2.546882        -0.804045         2.954684
 H         3.098524         0.823727         3.218502
 H         2.410324         1.710566         1.320733
