19
Iteration:  2152
 C        -0.002879         0.229303        -0.157071
 C         1.353938        -0.137046         0.070708
 C         2.219968        -1.443127         0.133645
 C         3.180637        -0.193560         0.118684
 C         4.578936        -0.028342         0.457942
 O         4.510258         0.155055         2.002014
 C         3.146189         0.028795         2.437796
 C         2.301034         0.459555         1.266919
 O         2.317883         0.413830        -0.919641
 H        -0.696216        -0.454696         0.356607
 H        -0.167204         1.179684         0.219592
 H        -0.281089        -0.033298        -1.110054
 H         2.268255        -2.034434         1.070496
 H         2.336921        -2.143716        -0.715538
 H         5.198259        -0.902157         0.078621
 H         4.977330         0.833664         0.072093
 H         2.939976        -0.973422         2.801161
 H         2.844059         0.710515         3.306436
 H         2.420814         1.569366         1.212631
