19
Iteration:  3770
 C        -0.134932         0.077952        -0.038538
 C         1.334117        -0.107985         0.159035
 C         2.407118        -1.312028         0.084158
 C         3.205299        -0.014487         0.034595
 C         4.636825         0.009507         0.563262
 O         4.458694        -0.286093         2.014175
 C         3.115673         0.030968         2.469806
 C         2.300799         0.600045         1.146442
 O         2.276489         0.547536        -1.023110
 H        -0.195937        -0.093981        -1.204449
 H        -0.851784        -0.649169         0.344286
 H        -0.365420         1.078254         0.107143
 H         2.531698        -1.957269         0.989115
 H         2.305867        -2.005006        -0.859855
 H         5.388105        -0.682524         0.258107
 H         5.119578         0.967586         0.508785
 H         2.764971        -0.924623         3.076928
 H         3.327591         0.826959         3.283080
 H         2.254379         1.681616         1.164199
