19
Iteration:  3296charge 0 multiplicity 1
 C        -0.033663         0.170896        -0.006891
 C         1.412727        -0.092301         0.121467
 C         2.258393        -1.429545         0.076501
 C         3.208181        -0.207815         0.130075
 C         4.615134        -0.023470         0.505294
 O         4.430914         0.013550         1.929068
 C         3.092904         0.024516         2.464568
 C         2.344422         0.616164         1.157880
 O         2.350252         0.431496        -0.933636
 H        -0.572596         0.127170         0.949583
 H        -0.205989         1.105322        -0.570142
 H        -0.507413        -0.710379        -0.562332
 H         2.071714        -2.232267         0.794260
 H         2.172507        -1.919620        -0.951478
 H         5.396011        -0.694867         0.352921
 H         4.950635         1.037592         0.302105
 H         2.646750        -1.094181         2.653426
 H         2.809085         0.680328         3.306089
 H         2.392845         1.715734         0.964532
