19
Iteration:  2228
 C        -0.090074         0.021598         0.005614
 C         1.408001        -0.092332         0.071417
 C         2.263216        -1.346017         0.067071
 C         3.248368        -0.151101         0.063235
 C         4.708550        -0.213491         0.596231
 O         4.450025         0.067097         2.018073
 C         3.013454         0.092406         2.391886
 C         2.384178         0.609362         1.103304
 O         2.303678         0.550534        -0.965927
 H        -0.458114        -0.002419         1.071743
 H        -0.550813         0.887364        -0.559075
 H        -0.447130        -0.917365        -0.321558
 H         2.146554        -1.987246         0.932400
 H         2.217815        -1.923019        -0.826541
 H         5.157347        -1.320556         0.475883
 H         5.350233         0.555252         0.218867
 H         2.675682        -0.947031         2.819382
 H         2.834446         0.888836         3.238768
 H         2.215498         1.686185         1.077843
