19
Iteration:  2877
 C         0.029572         0.072970         0.047192
 C         1.488039        -0.065856         0.165272
 C         2.366592        -1.329938         0.121949
 C         3.184752        -0.040828        -0.007828
 C         4.592812         0.008523         0.556165
 O         4.378382        -0.257280         1.976198
 C         3.005678         0.070619         2.417194
 C         2.331828         0.642727         1.189605
 O         2.291821         0.421810        -1.065051
 H        -0.581627         0.301101         0.874678
 H        -0.130925         1.019341        -0.587757
 H        -0.513345        -0.690466        -0.370245
 H         2.499909        -1.988748         0.914596
 H         2.212117        -1.769982        -0.850767
 H         5.232277        -0.818164         0.338625
 H         5.062287         1.075173         0.493941
 H         2.658330        -0.761531         2.928109
 H         2.995710         0.788864         3.212243
 H         2.274573         1.739886         1.138954
