19
Iteration:  2351
 C        -0.116183        -0.018067        -0.001849
 C         1.433957        -0.046558         0.109505
 C         2.335006        -1.364700         0.084099
 C         3.238544        -0.142644         0.044765
 C         4.638196        -0.202594         0.626018
 O         4.451207        -0.070959         2.031138
 C         3.015757         0.201037         2.387894
 C         2.384868         0.665546         1.103390
 O         2.292645         0.540005        -0.983123
 H        -0.315510        -0.896796         0.613580
 H        -0.448195         0.851019         0.413148
 H        -0.629195        -0.132711        -0.982071
 H         2.439106        -1.756532         1.090175
 H         2.198581        -2.137851        -0.704080
 H         4.896543        -1.293312         0.306548
 H         5.202560         0.506857         0.075816
 H         2.521742        -0.718171         2.777299
 H         2.984475         1.062014         3.177650
 H         2.513880         1.749293         0.769076
