19
Iteration:  2699charge 0 multiplicity 1
 C        -0.046997         0.227463         0.037654
 C         1.338001        -0.105260         0.133602
 C         2.272387        -1.400521         0.050902
 C         3.206114        -0.155086         0.037229
 C         4.646797        -0.161550         0.666047
 O         4.516903         0.135405         2.075883
 C         3.036751        -0.032184         2.333989
 C         2.405389         0.557747         1.095021
 O         2.247092         0.424909        -1.025920
 H        -0.675401        -0.477773         0.681896
 H        -0.350068         1.217747         0.259185
 H        -0.518741         0.091252        -1.021100
 H         2.451072        -2.152142         0.830964
 H         2.218775        -1.770373        -0.954491
 H         5.299782        -1.035953         0.552946
 H         5.158589         0.780325         0.235709
 H         2.961400        -1.266246         2.462241
 H         2.906780         0.631620         3.250777
 H         2.446470         1.690010         1.200712
