19
Iteration:  2418
 C        -0.014470         0.238239        -0.102615
 C         1.354419        -0.181256         0.146981
 C         2.256259        -1.450092         0.138574
 C         3.155613        -0.189294         0.091789
 C         4.636020        -0.022651         0.490883
 O         4.470254         0.122570         1.885827
 C         3.055719        -0.005528         2.458821
 C         2.283383         0.430200         1.237637
 O         2.407497         0.478857        -0.942591
 H        -0.595131         0.302165         0.766431
 H        -0.055571         1.134701        -0.640337
 H        -0.754666        -0.228647        -0.740233
 H         2.304568        -1.891703         1.168446
 H         2.103664        -2.116689        -0.723758
 H         5.320336        -0.958963         0.381566
 H         5.080765         0.882335         0.236652
 H         2.835910        -1.038653         2.843294
 H         3.173176         0.711570         3.364083
 H         2.246871         1.582303         1.254333
