19
Iteration:  2160charge 0 multiplicity 1
 C        -0.027380         0.192320        -0.100705
 C         1.419206        -0.138798         0.099671
 C         2.254526        -1.466866         0.135304
 C         3.128835        -0.166984         0.087657
 C         4.544628        -0.107915         0.495753
 O         4.505790         0.187323         1.966868
 C         3.053330         0.025965         2.405406
 C         2.329177         0.448909         1.198674
 O         2.360464         0.467926        -0.902154
 H        -0.556345        -0.354294         0.648937
 H        -0.090806         1.328679         0.174040
 H        -0.462588        -0.001116        -1.117409
 H         2.125539        -2.071405         1.012155
 H         2.611037        -1.982344        -0.725514
 H         5.284448        -0.959938         0.505393
 H         4.948996         0.844192        -0.033708
 H         2.882802        -1.051323         2.806434
 H         3.142207         0.670977         3.282445
 H         2.250496         1.493729         1.101373
