19
Iteration:  4146
 C        -0.050995         0.026667        -0.097748
 C         1.496299        -0.125762         0.209967
 C         2.358839        -1.267205        -0.015731
 C         3.198746         0.016573         0.078512
 C         4.612322         0.059624         0.589863
 O         4.387689        -0.304642         1.944182
 C         3.076214        -0.025242         2.399305
 C         2.276835         0.593824         1.253698
 O         2.289997         0.545590        -0.939549
 H        -0.574118        -0.804607         0.360223
 H        -0.335832         0.911611         0.511521
 H        -0.144083         0.206787        -1.109838
 H         2.503090        -1.946815         0.843661
 H         2.390379        -1.818998        -1.019504
 H         5.222197        -0.673395        -0.046843
 H         5.104251         1.070600         0.547470
 H         2.461016        -0.772231         2.868365
 H         3.104955         0.761514         3.296362
 H         2.228222         1.698156         1.211186
