19
Iteration:  1357
 C        -0.161509         0.230471        -0.112660
 C         1.376066        -0.151420         0.136774
 C         2.145094        -1.382111         0.073001
 C         3.205901        -0.182783         0.073513
 C         4.637377         0.044353         0.496845
 O         4.504504         0.209970         2.073635
 C         3.145699        -0.128826         2.394378
 C         2.340162         0.385072         1.259174
 O         2.416915         0.446403        -0.982469
 H        -0.784057         0.082740         0.816900
 H        -0.031384         1.262674        -0.532725
 H        -0.548395        -0.468503        -0.890478
 H         2.208201        -1.966756         0.996304
 H         2.052039        -2.028041        -0.808298
 H         5.309316        -0.828544         0.349743
 H         5.145570         0.933371         0.219713
 H         3.003655        -1.259136         2.510125
 H         2.853786         0.381760         3.308542
 H         2.212658         1.454610         1.273178
