19
Iteration:  1159
 C        -0.102264        -0.008332        -0.174134
 C         1.390473        -0.051257         0.036257
 C         2.305153        -1.347395         0.174833
 C         3.160060        -0.036339         0.091722
 C         4.633977        -0.037591         0.559135
 O         4.532165        -0.104898         2.016173
 C         3.078761        -0.031746         2.404081
 C         2.405028         0.632921         1.247529
 O         2.243960         0.523347        -0.934935
 H        -0.537615        -0.114318         0.727195
 H        -0.379518         0.976685        -0.587356
 H        -0.423411        -0.763300        -0.862293
 H         2.135848        -1.817592         1.127153
 H         2.269174        -1.848744        -0.777524
 H         4.938595        -0.941639         0.053736
 H         5.269194         0.809474         0.280792
 H         2.699276        -0.921791         2.707547
 H         3.204132         0.587677         3.283989
 H         2.378563         1.733983         1.228135
