19
Iteration:  3254charge 0 multiplicity 1
 C        -0.108011         0.108022        -0.211495
 C         1.333731        -0.070978         0.141049
 C         2.264067        -1.415991         0.238768
 C         3.235276        -0.150278         0.095560
 C         4.675931         0.007845         0.524087
 O         4.453166        -0.116639         1.943285
 C         3.158180         0.095262         2.475466
 C         2.355107         0.555213         1.206445
 O         2.266905         0.491261        -0.963076
 H        -0.814341        -0.413283         0.475684
 H        -0.351551         1.245843         0.028625
 H        -0.464246        -0.375110        -1.176891
 H         2.237999        -1.995104         1.099254
 H         2.351052        -1.898629        -0.756764
 H         5.375120        -0.744431         0.161501
 H         5.089251         0.897507         0.134713
 H         2.773543        -0.909768         2.989928
 H         3.377978         0.871720         3.200063
 H         2.355694         1.612092         1.074387
