19
Iteration:   723charge 0 multiplicity 1
 C        -0.090865        -0.123949        -0.028331
 C         1.352473        -0.104013         0.205847
 C         2.317384        -1.247789         0.154131
 C         3.202025         0.018420         0.049510
 C         4.693548         0.012367         0.588258
 O         4.357917        -0.413535         1.942512
 C         3.091555         0.172097         2.358547
 C         2.353115         0.661957         1.113472
 O         2.357658         0.582116        -0.978813
 H        -0.474115        -0.648193         0.785188
 H        -0.691295         0.886637         0.040224
 H        -0.297156        -0.703858        -0.923446
 H         2.403532        -1.806903         1.122217
 H         2.559142        -1.941340        -0.680598
 H         5.390700        -0.652411         0.061461
 H         4.938350         1.031821         0.659363
 H         2.423799        -0.539445         2.820108
 H         3.389651         1.029996         3.068087
 H         2.300237         1.806978         0.878943
