19
Iteration:  1013charge 0 multiplicity 1
 C        -0.167860         0.014607        -0.185242
 C         1.338703        -0.086639         0.142809
 C         2.193036        -1.339470         0.093454
 C         3.132197        -0.097937         0.151567
 C         4.636137        -0.014384         0.555397
 O         4.594354        -0.115091         2.046233
 C         3.191774         0.038266         2.471109
 C         2.356399         0.522925         1.179281
 O         2.326007         0.610787        -0.996973
 H        -0.824559        -0.340661         0.596651
 H        -0.456296         0.996798        -0.504544
 H        -0.317684        -0.653875        -1.082459
 H         2.312342        -2.172533         0.951219
 H         2.088280        -1.908867        -0.875193
 H         5.347258        -0.743393         0.141627
 H         5.153492         0.958458         0.427831
 H         2.641640        -0.945730         2.751091
 H         3.133024         0.633822         3.368167
 H         2.460852         1.637993         1.092925
