19
Iteration:  3708
 C        -0.114898         0.160944        -0.116804
 C         1.356505        -0.102161         0.126088
 C         2.298013        -1.396407         0.053271
 C         3.150866        -0.080267         0.063472
 C         4.577363        -0.031724         0.549405
 O         4.514859        -0.052827         2.042283
 C         3.170121        -0.010463         2.500119
 C         2.361791         0.538035         1.161132
 O         2.309203         0.487446        -0.960037
 H        -0.194417         0.750128        -1.017600
 H        -0.614691        -0.799896        -0.279481
 H        -0.743987         0.592345         0.778803
 H         2.426398        -2.038841         0.881587
 H         2.323232        -1.930999        -0.915800
 H         5.135871        -0.910538         0.068575
 H         5.004320         1.008508         0.236381
 H         2.825611        -0.949300         2.946554
 H         3.056593         0.588689         3.386345
 H         2.425500         1.637743         1.112650
