19
Iteration:  4004charge 0 multiplicity 1
 C        -0.145859         0.100138        -0.046354
 C         1.327347        -0.126859         0.225501
 C         2.148907        -1.424327        -0.034614
 C         3.248309        -0.164763         0.013170
 C         4.667951         0.017920         0.595702
 O         4.513816        -0.028883         2.031779
 C         3.041533         0.075349         2.407295
 C         2.402726         0.493018         1.126192
 O         2.393270         0.552892        -0.874855
 H        -0.159334         0.347474        -1.095830
 H        -0.778393        -0.838947        -0.059611
 H        -0.557102         0.903117         0.579404
 H         2.243584        -2.297124         0.718752
 H         1.938197        -1.854048        -1.038470
 H         5.470569        -0.706557         0.246230
 H         5.132810         0.965824         0.251617
 H         2.757461        -0.872028         2.612435
 H         3.126357         0.564725         3.407295
 H         2.449463         1.597242         0.984116
