19
Iteration:  3278charge 0 multiplicity 1
 C        -0.065453         0.122210        -0.097860
 C         1.342028        -0.120352         0.063663
 C         2.193154        -1.402293         0.088565
 C         3.160860        -0.126462         0.134567
 C         4.550365         0.058606         0.556424
 O         4.587547        -0.071451         2.026351
 C         3.099209         0.075500         2.400502
 C         2.377005         0.525388         1.236455
 O         2.359302         0.425907        -0.978744
 H        -0.683951         0.039036         0.832696
 H        -0.166731         1.295627        -0.313296
 H        -0.572737        -0.570222        -0.742820
 H         2.308586        -1.894630         1.049885
 H         2.135394        -2.018554        -0.816917
 H         5.260309        -0.743365         0.103762
 H         4.931340         0.920014         0.061181
 H         2.739001        -0.875735         2.753185
 H         3.070166         0.844489         3.197103
 H         2.373171         1.572539         1.079315
