19
Iteration:  3255
 C        -0.117943         0.111883        -0.211672
 C         1.337623        -0.074272         0.142196
 C         2.261896        -1.418240         0.238667
 C         3.235040        -0.150355         0.085299
 C         4.682129         0.008960         0.526702
 O         4.454520        -0.110769         1.947776
 C         3.156610         0.088697         2.486635
 C         2.344155         0.547594         1.196513
 O         2.271348         0.492275        -0.967971
 H        -0.812781        -0.383859         0.505109
 H        -0.370667         1.265093         0.014025
 H        -0.453996        -0.378287        -1.145702
 H         2.188746        -1.989995         1.118683
 H         2.361839        -1.886036        -0.751414
 H         5.416669        -0.750638         0.122075
 H         5.104415         0.908473         0.157684
 H         2.832491        -0.867886         2.995144
 H         3.409367         0.847567         3.205304
 H         2.338398         1.593819         1.082026
