19
Iteration:  1254charge 0 multiplicity 1
 C        -0.050669        -0.062441         0.031549
 C         1.471095        -0.053917         0.202823
 C         2.311202        -1.319954         0.119462
 C         3.273363        -0.055673         0.004837
 C         4.629075        -0.007395         0.579982
 O         4.383258        -0.244461         2.012945
 C         3.028169         0.103375         2.369265
 C         2.395340         0.732724         1.153131
 O         2.245082         0.479477        -1.057799
 H        -0.691177        -0.770675         0.612381
 H        -0.300468         1.070801         0.282603
 H        -0.095492        -0.147410        -1.062807
 H         2.269530        -1.957279         1.052440
 H         2.130991        -1.873612        -0.819834
 H         5.286221        -0.825245         0.322274
 H         5.168812         0.976643         0.479668
 H         2.543249        -0.970182         2.602969
 H         2.906289         0.682746         3.331808
 H         2.461125         1.847022         0.932075
