19
Iteration:  2907
 C        -0.159663         0.015187        -0.117144
 C         1.362923        -0.065098         0.092812
 C         2.309653        -1.369333         0.256741
 C         3.199606        -0.080200         0.110076
 C         4.657612        -0.015387         0.536202
 O         4.469840        -0.266449         1.913115
 C         3.093681         0.115252         2.374050
 C         2.303452         0.644273         1.173980
 O         2.383956         0.528213        -0.912847
 H        -0.856647         0.055933         0.725836
 H        -0.431176         1.093109        -0.485744
 H        -0.504099        -0.663481        -0.901127
 H         2.275733        -1.937436         1.203124
 H         2.353532        -1.953474        -0.702472
 H         5.322075        -0.738456         0.161009
 H         5.136462         1.000902         0.260434
 H         2.756514        -0.844993         2.873649
 H         3.133615         0.951628         3.082491
 H         2.373676         1.741034         1.209239
