19
Iteration:   205charge 0 multiplicity 1
 C        -0.074042         0.045154        -0.082091
 C         1.422568        -0.029092         0.121395
 C         2.300301        -1.373378         0.198078
 C         3.241109        -0.014354         0.063653
 C         4.646068         0.191964         0.589640
 O         4.360772        -0.334016         1.921227
 C         3.087293         0.040624         2.450099
 C         2.412255         0.638843         1.192192
 O         2.270699         0.381070        -1.048287
 H        -0.767868        -0.362721         0.828490
 H        -0.514914         0.992057        -0.202263
 H        -0.364279        -0.594084        -0.872911
 H         2.520533        -1.924170         1.138074
 H         2.167290        -1.864502        -0.761813
 H         5.572522        -0.259245         0.156339
 H         4.925270         1.307907         0.676210
 H         2.665750        -0.824883         3.060403
 H         3.311190         0.893396         3.060993
 H         2.376308         1.709803         1.097981
