19
Iteration:  2039charge 0 multiplicity 1
 C        -0.047867        -0.041984         0.128835
 C         1.489773        -0.034379         0.078043
 C         2.336613        -1.309876         0.055593
 C         3.297861        -0.145046        -0.010548
 C         4.676758         0.047900         0.616918
 O         4.281470        -0.293639         2.051000
 C         3.018809         0.187372         2.413721
 C         2.403033         0.605158         1.029084
 O         2.216963         0.530550        -1.042798
 H        -0.225367        -0.154623         1.133554
 H        -0.451758         0.965815        -0.201686
 H        -0.295596        -0.987220        -0.379818
 H         2.258639        -1.930131         0.928181
 H         2.365061        -1.805313        -0.916881
 H         5.345951        -0.770463         0.265632
 H         5.218701         0.946526         0.569954
 H         2.608607        -0.616068         3.179895
 H         3.145137         1.027480         3.127111
 H         2.372738         1.655267         0.965777
