19
Iteration:  2589charge 0 multiplicity 1
 C        -0.047602         0.111986        -0.111789
 C         1.362975        -0.181577         0.277676
 C         2.282977        -1.320046         0.226414
 C         3.136990        -0.012645         0.062370
 C         4.577594         0.087447         0.539348
 O         4.416631        -0.310231         1.952587
 C         3.074818         0.114396         2.409071
 C         2.354860         0.587176         1.184119
 O         2.426323         0.459534        -1.096320
 H        -0.480549        -0.065942         0.951609
 H        -0.076895         1.097028        -0.505543
 H        -0.541552        -0.621569        -0.859068
 H         2.328080        -1.913287         1.122968
 H         2.154201        -1.883476        -0.683161
 H         5.217705        -0.610552         0.088205
 H         5.195378         1.031265         0.390421
 H         2.770688        -0.842530         2.930624
 H         3.266093         0.936997         3.113284
 H         2.192391         1.669380         1.250436
