19
Iteration:  3128charge 0 multiplicity 1
 C        -0.038104         0.113252        -0.027111
 C         1.384096        -0.110993         0.057193
 C         2.253183        -1.349951         0.166937
 C         3.157064        -0.113673         0.112360
 C         4.609368         0.044445         0.569496
 O         4.527474        -0.188114         1.927934
 C         3.021916         0.072205         2.357716
 C         2.310439         0.583069         1.177860
 O         2.387775         0.490780        -0.948389
 H        -0.410263         0.079818         0.983630
 H        -0.319536         1.029197        -0.578207
 H        -0.604544        -0.621446        -0.524712
 H         2.130047        -2.026108         1.037925
 H         2.358583        -2.032201        -0.667110
 H         5.187085        -0.773842         0.286484
 H         4.988942         0.983958         0.217304
 H         2.783175        -0.946053         2.822348
 H         3.193893         0.758228         3.242642
 H         2.102667         1.679537         1.081232
