19
Iteration:  4380
 C        -0.031130         0.039929        -0.073844
 C         1.370264        -0.038057         0.103057
 C         2.246455        -1.256866        -0.108505
 C         3.184174        -0.010693         0.060774
 C         4.569545         0.148749         0.596936
 O         4.502306        -0.260697         2.012029
 C         3.091506        -0.185784         2.417648
 C         2.300917         0.470046         1.304051
 O         2.356215         0.654126        -0.921735
 H        -0.272094         0.812080        -0.773116
 H        -0.396293        -0.868966        -0.497950
 H        -0.540160         0.009041         0.901800
 H         2.543858        -1.967373         0.807799
 H         2.309247        -1.847906        -1.000664
 H         5.290472        -0.504238         0.050662
 H         4.941194         1.188936         0.535242
 H         2.764175        -1.202667         2.699471
 H         3.034540         0.352209         3.391278
 H         2.233182         1.565648         1.391484
