19
Iteration:  2707
 C        -0.108742         0.216219         0.026649
 C         1.387512        -0.097167         0.159057
 C         2.276358        -1.340974         0.007738
 C         3.232355        -0.159787         0.013480
 C         4.622929        -0.094993         0.629164
 O         4.471248         0.136018         2.087313
 C         3.103810        -0.055479         2.439439
 C         2.447685         0.518970         1.109330
 O         2.247527         0.393263        -1.062494
 H        -0.732630        -0.537049         0.571275
 H        -0.249248         1.210954         0.407925
 H        -0.380389         0.259002        -1.063573
 H         2.266046        -2.047759         0.911921
 H         2.111005        -2.016738        -0.870189
 H         5.128013        -1.106440         0.344614
 H         5.274058         0.652695         0.152630
 H         2.754037        -1.074510         2.719871
 H         2.692012         0.595377         3.195362
 H         2.520642         1.596068         1.165690
