19
Iteration:  1817charge 0 multiplicity 1
 C        -0.005928         0.050224        -0.141530
 C         1.415406        -0.125295         0.202686
 C         2.137778        -1.389015         0.097656
 C         3.215442        -0.116822         0.076470
 C         4.636476         0.034566         0.561281
 O         4.512433        -0.131645         2.010786
 C         3.101944         0.065785         2.450740
 C         2.366963         0.666546         1.200509
 O         2.258657         0.464267        -0.987892
 H        -0.667700        -0.303165         0.745737
 H        -0.238171         0.997899        -0.509193
 H        -0.174102        -0.648818        -0.930620
 H         2.144582        -2.092945         0.910161
 H         2.269963        -1.760646        -0.911182
 H         5.165949        -0.795974        -0.038456
 H         4.869033         1.076390         0.189269
 H         2.606038        -0.819758         2.818371
 H         3.273333         0.858179         3.232674
 H         2.422248         1.768413         1.309165
