19
Iteration:  4926charge 0 multiplicity 1
 C        -0.103509         0.002556        -0.111196
 C         1.327233        -0.058586         0.101196
 C         2.297919        -1.275093        -0.139381
 C         3.162916        -0.032576         0.133627
 C         4.630946         0.069563         0.572946
 O         4.496478        -0.121593         2.024042
 C         3.148297        -0.224689         2.412431
 C         2.375905         0.486657         1.291705
 O         2.292244         0.694700        -0.834937
 H        -0.227913         0.854957        -0.681834
 H        -0.485094        -0.885929        -0.553955
 H        -0.432046        -0.050421         0.894738
 H         2.284279        -2.267662         0.386150
 H         2.118632        -1.472463        -1.258213
 H         5.282712        -0.688597         0.226336
 H         5.009840         1.026269         0.356627
 H         2.808993        -1.287671         2.300405
 H         3.011108         0.197828         3.469494
 H         2.358898         1.635516         1.260004
