19
Iteration:  2259charge 0 multiplicity 1
 C        -0.075443         0.102141        -0.137084
 C         1.365553        -0.179070         0.258412
 C         2.301208        -1.359763         0.160919
 C         3.193050        -0.102930         0.124465
 C         4.557320        -0.061983         0.477346
 O         4.464068        -0.121009         1.981267
 C         3.095498         0.131756         2.448443
 C         2.302403         0.673405         1.187379
 O         2.376707         0.440790        -1.055012
 H        -0.601000        -0.102294         0.814722
 H        -0.175593         1.122239        -0.688950
 H        -0.332139        -0.677761        -0.851873
 H         2.337692        -1.982523         1.049620
 H         2.333308        -1.902441        -0.747328
 H         5.267845        -0.808472         0.298861
 H         4.972842         0.960411         0.320969
 H         2.925932        -0.843249         2.872471
 H         3.259516         0.815474         3.252400
 H         2.107749         1.692683         1.170250
