19
Iteration:  1050
 C        -0.013127         0.184676        -0.102287
 C         1.377796        -0.117937         0.160541
 C         2.286615        -1.453050         0.090157
 C         3.160099        -0.194104         0.186653
 C         4.591276        -0.036773         0.490117
 O         4.430492         0.143943         1.965740
 C         3.054657        -0.093501         2.404713
 C         2.329896         0.529017         1.202206
 O         2.376889         0.526050        -0.927600
 H        -0.630525        -0.534334         0.460134
 H        -0.248267         1.289788         0.284927
 H        -0.176490         0.087407        -1.156609
 H         2.415215        -2.173240         0.925536
 H         2.182542        -1.947430        -0.917577
 H         5.081875        -1.012527         0.220827
 H         5.035276         0.853280        -0.037295
 H         2.943783        -1.289956         2.459209
 H         3.033440         0.385280         3.422932
 H         2.421916         1.647165         1.099053
