19
Iteration:  1151
 C        -0.070336         0.009617        -0.138084
 C         1.356917        -0.044565         0.094338
 C         2.303008        -1.329847         0.138435
 C         3.151035        -0.004124         0.111840
 C         4.552322        -0.071496         0.527811
 O         4.544790        -0.061466         1.993651
 C         3.082602        -0.067108         2.435026
 C         2.327649         0.657099         1.219676
 O         2.332904         0.531996        -0.973794
 H        -0.585549        -0.289766         0.872676
 H        -0.310775         0.924372        -0.513306
 H        -0.236339        -0.810273        -0.899762
 H         2.245052        -1.892869         1.046989
 H         2.372357        -2.081075        -0.675873
 H         4.939031        -1.114309         0.262041
 H         5.319060         0.637571         0.175798
 H         2.666553        -1.144446         2.747877
 H         3.147938         0.574751         3.364216
 H         2.386458         1.720450         1.183770
