19
Iteration:  2058charge 0 multiplicity 1
 C        -0.096401        -0.036247         0.057896
 C         1.409570        -0.151028         0.091927
 C         2.390845        -1.316881         0.032671
 C         3.179989        -0.039913         0.086387
 C         4.671178        -0.103298         0.627709
 O         4.440435        -0.278638         2.022913
 C         2.969695         0.249318         2.375756
 C         2.408520         0.720736         1.122419
 O         2.253305         0.519345        -1.035836
 H        -0.561640        -0.457036         1.013226
 H        -0.336118         1.010182         0.055064
 H        -0.541913        -0.704648        -0.706373
 H         2.505383        -2.028520         0.861300
 H         2.386846        -1.753358        -0.987782
 H         5.289741        -0.898858         0.319918
 H         5.298019         0.890571         0.547909
 H         2.667435        -0.712264         2.852264
 H         3.096937         0.964550         3.181712
 H         2.316014         1.799021         0.879327
