19
Iteration:   941
 C        -0.113884         0.007312         0.109383
 C         1.411137        -0.089295         0.142428
 C         2.424681        -1.307706         0.130020
 C         3.250308         0.009938         0.067200
 C         4.653119         0.168466         0.613277
 O         4.316001        -0.463935         1.928708
 C         3.010957         0.099568         2.384384
 C         2.365925         0.662953         1.095478
 O         2.321818         0.484610        -1.073758
 H        -0.565563        -0.334810         1.012670
 H        -0.570699         1.098111        -0.182216
 H        -0.446914        -0.670833        -0.678933
 H         2.266482        -2.005153         0.896659
 H         2.716701        -1.877684        -0.747658
 H         5.521628        -0.416817         0.209975
 H         5.053250         1.176262         0.672868
 H         2.589140        -0.786490         2.862675
 H         3.175198         0.916751         3.123367
 H         2.448715         1.779564         1.187982
