19
Iteration:   208
 C        -0.075166         0.024660        -0.085468
 C         1.419810        -0.049735         0.141360
 C         2.281657        -1.367856         0.173579
 C         3.230808        -0.017374         0.053764
 C         4.677120         0.170588         0.596292
 O         4.377574        -0.323634         1.944569
 C         3.102054         0.054159         2.442371
 C         2.394430         0.643260         1.181597
 O         2.263910         0.395592        -1.033179
 H        -0.734191        -0.363480         0.845453
 H        -0.402184         1.055462        -0.274055
 H        -0.390493        -0.626459        -0.910983
 H         2.524814        -1.988562         0.949781
 H         2.078974        -1.819055        -0.804707
 H         5.503480        -0.352210         0.210959
 H         4.868784         1.313976         0.656390
 H         2.663812        -0.715135         3.012104
 H         3.283260         0.957380         3.046655
 H         2.394257         1.717502         1.190725
