19
Iteration:  1055charge 0 multiplicity 1
 C        -0.048432         0.224896        -0.086625
 C         1.422008        -0.162652         0.203358
 C         2.287671        -1.405664         0.055996
 C         3.147268        -0.204540         0.121819
 C         4.584003        -0.028697         0.507089
 O         4.441078         0.160167         2.018867
 C         3.069847        -0.117303         2.370173
 C         2.309966         0.531213         1.166694
 O         2.383080         0.498374        -0.900444
 H        -0.712679        -0.542463         0.476650
 H        -0.128410         1.159249         0.307468
 H        -0.246328         0.229413        -1.199058
 H         2.382702        -2.194224         0.809692
 H         2.235659        -1.999034        -0.828204
 H         5.088821        -0.960236         0.308343
 H         5.045762         0.683478        -0.175369
 H         3.067615        -1.123398         2.557871
 H         2.904631         0.415261         3.298196
 H         2.332001         1.593667         1.046501
