19
Iteration:  1443
 C        -0.118378        -0.046702        -0.060545
 C         1.410256        -0.086979         0.054624
 C         2.321793        -1.318602         0.097240
 C         3.182340        -0.082738         0.110302
 C         4.625951        -0.110445         0.595193
 O         4.516925        -0.231373         1.974037
 C         3.037193         0.214733         2.439655
 C         2.317582         0.711902         1.181579
 O         2.326058         0.504020        -0.966507
 H        -0.498967        -0.788085         0.512392
 H        -0.657279         0.849387         0.349914
 H        -0.451261        -0.225381        -1.106537
 H         2.285104        -2.044428         0.885826
 H         2.419878        -1.628181        -0.938562
 H         5.096120        -0.912510         0.071513
 H         5.035116         0.876541         0.387262
 H         2.697697        -0.685887         3.002899
 H         3.372555         0.868409         3.225201
 H         2.319497         1.787523         1.024554
