19
Iteration:  2774
 C        -0.108128         0.090983        -0.255630
 C         1.420853        -0.058821         0.178657
 C         2.191296        -1.300500         0.158346
 C         3.199278        -0.100887         0.075264
 C         4.631651        -0.054695         0.528113
 O         4.539148        -0.044324         1.989967
 C         3.151663         0.013608         2.493068
 C         2.423296         0.515778         1.235846
 O         2.198405         0.450744        -0.970596
 H        -0.705462        -0.846913         0.036380
 H        -0.659123         0.890550         0.120809
 H        -0.381516         0.397810        -1.344383
 H         2.143008        -1.860480         1.187672
 H         2.021860        -2.028481        -0.639002
 H         5.338074        -0.922489         0.251014
 H         5.272886         0.833420         0.181559
 H         2.984469        -0.886046         2.995088
 H         3.348292         0.874456         3.126396
 H         2.342597         1.615831         1.363220
