19
Iteration:  4012charge 0 multiplicity 1
 C        -0.114953         0.134948        -0.028201
 C         1.329415        -0.145064         0.193554
 C         2.154745        -1.400513        -0.052364
 C         3.210017        -0.184152         0.096357
 C         4.692411         0.060045         0.595295
 O         4.468061        -0.048404         1.997857
 C         3.103871         0.057867         2.405866
 C         2.418284         0.516809         1.216562
 O         2.387204         0.522900        -0.955122
 H        -0.331624         0.220793        -1.073263
 H        -0.709542        -0.737809         0.075363
 H        -0.777526         0.902828         0.524953
 H         2.176300        -2.365487         0.637636
 H         2.237392        -1.815175        -1.044009
 H         5.384325        -0.752164         0.445827
 H         4.935608         1.096792         0.199365
 H         2.803059        -1.027378         2.629235
 H         2.813510         0.702373         3.314221
 H         2.688792         1.543120         1.038822
