19
Iteration:    98
 C        -0.129310         0.005547        -0.116538
 C         1.404129        -0.077570         0.155997
 C         2.266802        -1.354716         0.058603
 C         3.139206        -0.087581         0.061932
 C         4.541597        -0.148606         0.525428
 O         4.480342         0.158601         2.008342
 C         3.100031        -0.057430         2.488417
 C         2.400715         0.554896         1.230810
 O         2.404548         0.551418        -0.986063
 H        -0.541730        -0.600204         0.747880
 H        -0.595862         0.925187        -0.198805
 H        -0.343272        -0.534216        -0.991167
 H         2.292779        -2.102494         0.820561
 H         2.336656        -1.763506        -0.935921
 H         4.807577        -1.165471         0.496656
 H         5.208798         0.612018         0.117565
 H         2.895162        -1.117032         2.727604
 H         3.051732         0.621474         3.332691
 H         2.479717         1.601138         1.222945
