19
Iteration:  1107charge 0 multiplicity 1
 C        -0.088315         0.129510         0.011609
 C         1.385529        -0.118916         0.064607
 C         2.180056        -1.414234        -0.072439
 C         3.172867        -0.218960         0.112705
 C         4.626208        -0.160456         0.615961
 O         4.491851         0.204640         2.059850
 C         3.069440         0.062210         2.423289
 C         2.412305         0.429359         1.161958
 O         2.374280         0.568907        -0.950810
 H        -0.620748        -0.728540         0.672761
 H        -0.373983         1.105828         0.324625
 H        -0.395761        -0.024989        -1.066050
 H         2.184330        -2.100143         0.763217
 H         2.159420        -1.797228        -1.097383
 H         5.146392        -1.102700         0.321427
 H         5.093683         0.672219         0.064168
 H         2.977688        -1.121830         2.636503
 H         2.906781         0.589207         3.402852
 H         2.395430         1.478437         0.976906
