19
Iteration:  2502
 C        -0.117877         0.033056        -0.011301
 C         1.418537        -0.034762         0.116511
 C         2.358352        -1.368776         0.089415
 C         3.175316        -0.106997         0.084968
 C         4.608190        -0.179715         0.523573
 O         4.418817        -0.067637         1.989856
 C         3.053532         0.126587         2.424502
 C         2.414905         0.687487         1.189370
 O         2.361564         0.486909        -0.963584
 H        -0.678480        -0.711741         0.689057
 H        -0.613998         0.966679         0.215644
 H        -0.300244        -0.320071        -1.097579
 H         2.221857        -2.044257         0.888093
 H         2.427831        -1.902117        -0.855058
 H         4.922160        -1.139119         0.189387
 H         5.322161         0.601633         0.045141
 H         2.557909        -0.798374         2.693812
 H         2.903082         0.839868         3.268058
 H         2.250540         1.758490         1.092444
