19
Iteration:  4610charge 0 multiplicity 1
 C        -0.054749         0.127328        -0.079885
 C         1.421799        -0.161527         0.170011
 C         2.352392        -1.348601        -0.153637
 C         3.108269        -0.038037         0.046287
 C         4.596232         0.028171         0.587946
 O         4.443716         0.001358         2.023796
 C         3.125862        -0.284672         2.462715
 C         2.322258         0.359801         1.292497
 O         2.314975         0.764681        -0.944798
 H        -0.152022         1.040692        -0.631931
 H        -0.522214        -0.759093        -0.589533
 H        -0.533413         0.398611         0.895340
 H         2.533912        -1.985040         0.668232
 H         2.195460        -1.657246        -1.078192
 H         4.931705        -0.908545         0.010084
 H         5.182763         0.922286         0.195027
 H         2.885124        -1.306856         2.735253
 H         3.026884         0.251833         3.506736
 H         2.272339         1.403183         1.666632
