19
Iteration:  2782charge 0 multiplicity 1
 C        -0.082138         0.072736        -0.219054
 C         1.324972        -0.033949         0.103308
 C         2.245215        -1.295291         0.230739
 C         3.192452        -0.119345         0.052573
 C         4.656665        -0.037470         0.560844
 O         4.560384        -0.085300         2.003522
 C         3.182151         0.045369         2.418060
 C         2.375561         0.509858         1.219816
 O         2.176887         0.486443        -0.949728
 H        -0.728276        -0.795206        -0.021548
 H        -0.522680         0.995781         0.232794
 H        -0.055536         0.132916        -1.330742
 H         2.277831        -1.845730         1.227197
 H         2.156003        -2.025379        -0.618522
 H         5.086954        -1.016830         0.201414
 H         5.180234         0.801802         0.213010
 H         2.810170        -0.861056         2.880123
 H         3.085992         0.747773         3.267557
 H         2.597985         1.583094         1.245619
