19
Iteration:  3605charge 0 multiplicity 1
 C        -0.106359         0.182690        -0.112725
 C         1.347258        -0.111927         0.157456
 C         2.297552        -1.401524         0.062458
 C         3.182392        -0.211371         0.081509
 C         4.644727        -0.041701         0.537799
 O         4.529582         0.057626         2.009355
 C         3.086383         0.021436         2.495277
 C         2.384600         0.499918         1.174205
 O         2.266678         0.464168        -0.998078
 H        -0.384344         0.901104         0.638414
 H        -0.142064         0.585595        -1.118557
 H        -0.642192        -0.647375         0.132340
 H         2.140462        -1.941381         1.055072
 H         2.294511        -2.028189        -0.831041
 H         5.270980        -0.923293         0.291837
 H         5.042660         0.798721         0.040567
 H         2.674137        -0.980331         2.902672
 H         3.055975         0.901528         3.222628
 H         2.337217         1.571161         1.284017
