19
Iteration:    93charge 0 multiplicity 1
 C        -0.113235         0.034880        -0.107043
 C         1.405989        -0.096931         0.199437
 C         2.279304        -1.368362         0.065436
 C         3.116860        -0.093030         0.061110
 C         4.512221        -0.106981         0.519369
 O         4.469363         0.168695         2.002904
 C         3.096091        -0.060223         2.433166
 C         2.387672         0.543017         1.264207
 O         2.424591         0.533569        -0.995113
 H        -0.582726        -0.608451         0.742868
 H        -0.513831         1.124803        -0.189236
 H        -0.195001        -0.604252        -1.061065
 H         2.327262        -2.069707         0.950283
 H         2.435558        -1.779118        -0.959626
 H         4.742203        -1.236980         0.548438
 H         5.269568         0.560318         0.057476
 H         2.889068        -1.158088         2.493376
 H         3.013736         0.479715         3.404567
 H         2.517848         1.679282         1.213102
