19
Iteration:  1339
 C        -0.017136         0.233208        -0.201538
 C         1.380079        -0.127157         0.154944
 C         2.234684        -1.518928         0.056758
 C         3.170320        -0.231890         0.130591
 C         4.615660         0.000297         0.578189
 O         4.482170         0.184073         1.971445
 C         3.081870        -0.110517         2.436354
 C         2.400601         0.502863         1.161233
 O         2.234928         0.519004        -0.841776
 H        -0.607095         0.064395         0.804221
 H        -0.111932         1.193418        -0.575284
 H        -0.435249        -0.433008        -0.960779
 H         2.225776        -2.194257         0.949002
 H         2.324119        -1.909017        -0.964650
 H         5.377450        -0.791170         0.315663
 H         4.936548         0.880621        -0.033690
 H         3.049184        -1.142613         2.614644
 H         3.065141         0.401346         3.401401
 H         2.728131         1.550084         1.134881
