19
Iteration:   488
 C        -0.098464         0.110976        -0.072856
 C         1.395921        -0.183904         0.146698
 C         2.314562        -1.415414         0.125494
 C         3.206217        -0.088907         0.125643
 C         4.619317         0.080410         0.519245
 O         4.488708        -0.144177         1.971389
 C         3.000787         0.089228         2.454585
 C         2.335738         0.488475         1.145457
 O         2.365893         0.570018        -0.989887
 H        -0.784633        -0.528467         0.668033
 H        -0.336972         1.108377         0.048896
 H        -0.395578        -0.256651        -1.022974
 H         2.436113        -2.036521         1.041351
 H         2.356811        -2.001891        -0.823648
 H         5.163708        -0.778156         0.077964
 H         4.920769         1.093543         0.305253
 H         2.735337        -0.911075         2.928312
 H         3.037976         0.813837         3.192140
 H         2.332189         1.549551         1.099871
