19
Iteration:  2627
 C        -0.091188         0.058578        -0.246543
 C         1.332486        -0.086045         0.104985
 C         2.199121        -1.366983         0.155624
 C         3.232098        -0.090676         0.177941
 C         4.678107        -0.003880         0.523794
 O         4.520809        -0.152740         1.951717
 C         3.110103         0.080541         2.434529
 C         2.445589         0.590734         1.203794
 O         2.250846         0.478919        -0.846583
 H        -0.590059         0.313473         0.655345
 H        -0.430415         1.042905        -0.836808
 H        -0.597751        -0.769449        -0.654669
 H         2.199749        -2.182841         0.922740
 H         2.265348        -1.727923        -0.920742
 H         5.240345        -0.971713         0.104845
 H         5.060925         0.986825         0.298582
 H         2.600633        -0.807440         2.692620
 H         2.966939         0.849499         3.262723
 H         2.490897         1.692821         1.102256
