19
Iteration:  2477
 C        -0.050051         0.095623        -0.146888
 C         1.372269        -0.094566         0.114690
 C         2.126275        -1.379257         0.201950
 C         3.130940        -0.177004         0.083804
 C         4.640993        -0.015021         0.520061
 O         4.528087         0.032280         1.997063
 C         3.139984        -0.001023         2.411528
 C         2.319910         0.514996         1.206805
 O         2.415604         0.503871        -0.946175
 H        -0.692043        -0.234567         0.708563
 H        -0.278085         1.217657        -0.244182
 H        -0.286893        -0.419191        -1.036265
 H         1.998635        -1.966000         1.122537
 H         1.998913        -2.058501        -0.670332
 H         5.101764        -0.831963        -0.046105
 H         5.206978         0.866809         0.145407
 H         2.830713        -1.018602         2.903631
 H         2.934134         0.803521         3.028737
 H         2.354689         1.576276         1.125228
