19
Iteration:  1802charge 0 multiplicity 1
 C        -0.068215         0.011185        -0.179768
 C         1.375108        -0.012425         0.143336
 C         2.353628        -1.304700         0.187598
 C         3.178047        -0.059490         0.142457
 C         4.668005         0.022613         0.540218
 O         4.498268        -0.230908         1.945516
 C         3.078809         0.091944         2.426001
 C         2.385355         0.594730         1.199019
 O         2.180215         0.446825        -0.961446
 H        -0.725950         0.036887         0.609315
 H        -0.272274         1.023029        -0.679539
 H        -0.331140        -0.858476        -0.820274
 H         2.339984        -1.891300         1.146604
 H         2.135358        -1.853559        -0.742212
 H         5.356650        -0.706014         0.318326
 H         5.167701         1.001364         0.403340
 H         2.768897        -0.995209         2.808396
 H         3.095301         0.788144         3.260648
 H         2.383404         1.706036         0.995910
