19
Iteration:   900
 C        -0.152432        -0.007311         0.022100
 C         1.386122        -0.087813         0.155627
 C         2.346604        -1.357159         0.026212
 C         3.213744        -0.063031         0.065373
 C         4.607175        -0.017100         0.547578
 O         4.444803        -0.131625         2.020341
 C         3.019498         0.019281         2.410341
 C         2.422263         0.570537         1.158103
 O         2.369555         0.588987        -0.992748
 H        -0.768311        -0.705397         0.682414
 H        -0.580514         0.980568         0.135592
 H        -0.378116        -0.221268        -0.983522
 H         2.345852        -1.950609         0.961583
 H         2.285347        -2.009298        -0.894623
 H         5.302641        -0.824147         0.180335
 H         5.151416         0.906373         0.269840
 H         2.600779        -0.814594         2.854389
 H         3.073180         0.839661         3.176821
 H         2.251278         1.630455         1.102969
