19
Iteration:  4599
 C         0.005849         0.154641        -0.052176
 C         1.425599        -0.123778         0.109702
 C         2.301218        -1.373888        -0.113672
 C         3.154166         0.002891         0.078216
 C         4.545802        -0.026668         0.499749
 O         4.446670         0.033812         1.987375
 C         3.104085        -0.303598         2.455325
 C         2.284519         0.334125         1.333794
 O         2.339018         0.776103        -0.887354
 H        -0.280703         0.965425        -0.669443
 H        -0.365117        -0.738636        -0.617473
 H        -0.532705         0.076994         0.928829
 H         2.303216        -2.112164         0.655669
 H         2.420572        -1.826325        -0.986594
 H         5.313237        -0.845131         0.286712
 H         5.014633         0.984743         0.345791
 H         3.075313        -1.368842         2.617052
 H         2.876841         0.354198         3.386695
 H         2.172367         1.436402         1.275434
