19
Iteration:  4887
 C        -0.024961         0.069955        -0.115817
 C         1.410378        -0.180521         0.077357
 C         2.280845        -1.325758        -0.111403
 C         3.152170        -0.035896         0.112848
 C         4.568593         0.044819         0.550854
 O         4.472142        -0.001891         1.990941
 C         3.175153        -0.267653         2.437350
 C         2.271640         0.402253         1.250417
 O         2.300149         0.749417        -0.813875
 H        -0.291804         1.231057         0.070475
 H        -0.517516        -0.181325        -1.109869
 H        -0.625905        -0.282792         0.796263
 H         2.455868        -1.936530         0.727392
 H         2.336323        -1.823285        -1.080246
 H         5.085740        -0.964507         0.256357
 H         5.244179         0.949733         0.213381
 H         3.054958        -1.330456         2.610724
 H         3.094062         0.259890         3.400962
 H         2.224479         1.477149         1.417061
