19
Iteration:  1135
 C        -0.085209        -0.007219        -0.092825
 C         1.370787        -0.101083         0.222092
 C         2.274075        -1.288345         0.106452
 C         3.166536        -0.083161         0.091202
 C         4.616746        -0.203212         0.521476
 O         4.431498         0.057895         1.956478
 C         3.074290        -0.004694         2.394687
 C         2.306917         0.550115         1.271777
 O         2.473428         0.568184        -1.002083
 H        -0.588355        -0.388208         0.738452
 H        -0.421127         1.113625        -0.214865
 H        -0.356408        -0.531271        -0.976969
 H         2.304995        -1.924872         1.046865
 H         2.174044        -1.524485        -0.958062
 H         5.004259        -1.143647         0.151585
 H         5.129213         0.658463         0.092371
 H         2.842268        -0.979700         2.634967
 H         3.049703         0.527189         3.326378
 H         2.123343         1.670228         1.263537
