19
Iteration:  3782
 C        -0.090637         0.077545        -0.101951
 C         1.436322        -0.157536         0.199428
 C         2.355075        -1.348033         0.054309
 C         3.196101         0.016051         0.051564
 C         4.675189         0.018879         0.566311
 O         4.428227        -0.309178         1.979757
 C         3.069163         0.118660         2.426587
 C         2.371447         0.541256         1.209662
 O         2.248768         0.580357        -0.946396
 H        -0.395966        -0.335230        -1.119598
 H        -0.486022        -0.461223         0.752661
 H        -0.505498         1.053658         0.032177
 H         2.541304        -2.026692         0.904839
 H         2.319633        -1.816740        -1.015956
 H         5.129921        -0.864272         0.138038
 H         5.157061         0.921592         0.374697
 H         2.488008        -0.817339         2.884384
 H         3.011693         1.042261         3.115955
 H         2.181835         1.595637         1.081881
