19
Iteration:  2896
 C        -0.099665         0.076427        -0.085126
 C         1.405958        -0.145867         0.135824
 C         2.339998        -1.336453         0.234070
 C         3.166707        -0.028787         0.128147
 C         4.582408        -0.003713         0.485221
 O         4.422858        -0.259944         1.937512
 C         3.060391         0.090629         2.419116
 C         2.375857         0.614946         1.185977
 O         2.384938         0.541803        -1.016134
 H        -0.509440        -0.035890         0.942454
 H        -0.282781         1.039013        -0.678018
 H        -0.517512        -0.783422        -0.622526
 H         2.252852        -1.866385         1.210856
 H         2.422427        -2.098390        -0.584585
 H         5.137247        -0.812630         0.078966
 H         5.069494         1.015551         0.367547
 H         2.485725        -0.776824         2.826412
 H         3.245338         0.772035         3.252168
 H         2.219228         1.664790         0.973695
