19
Iteration:   564
 C        -0.039417         0.120439        -0.133782
 C         1.385220        -0.170951         0.051541
 C         2.245755        -1.432050        -0.125876
 C         3.093559        -0.251417         0.141123
 C         4.575829        -0.165938         0.554260
 O         4.515477         0.287496         1.924775
 C         3.131319         0.015401         2.510259
 C         2.329035         0.437097         1.264857
 O         2.329229         0.615534        -0.778026
 H        -0.636900        -0.494951         0.684943
 H        -0.151839         1.127147        -0.071025
 H        -0.494815        -0.225142        -1.023755
 H         2.133865        -2.199070         0.642792
 H         2.414654        -1.919187        -1.099890
 H         5.071990        -1.239391         0.639108
 H         5.202552         0.583934        -0.083079
 H         3.046797        -1.051622         2.998131
 H         3.084371         0.745911         3.227175
 H         2.581041         1.445369         1.145114
