19
Iteration:  1852charge 0 multiplicity 1
 C        -0.115412         0.173701        -0.001210
 C         1.373007        -0.089892         0.023127
 C         2.285839        -1.455899         0.064964
 C         3.193384        -0.171136         0.110467
 C         4.641561        -0.087310         0.518482
 O         4.480967         0.108379         2.010037
 C         3.023736         0.013522         2.411990
 C         2.343525         0.493556         1.166523
 O         2.389191         0.485232        -0.953729
 H        -0.738527        -0.599868         0.597020
 H        -0.363380         1.032822         0.589603
 H        -0.603354         0.121432        -0.982803
 H         2.005131        -1.985333         0.973257
 H         2.289466        -2.087686        -0.813649
 H         5.502258        -0.913700         0.497859
 H         5.042390         0.778018        -0.075159
 H         3.014272        -0.887354         2.958556
 H         2.998841         0.805048         3.181631
 H         2.410545         1.560808         1.187976
