19
Iteration:   182charge 0 multiplicity 1
 C        -0.012623         0.050778        -0.050395
 C         1.412499        -0.164212         0.082752
 C         2.370962        -1.327044         0.327941
 C         3.180169        -0.007905         0.100746
 C         4.554506         0.158343         0.553154
 O         4.434669        -0.387526         1.883536
 C         3.022494         0.055463         2.310061
 C         2.271543         0.685418         1.158070
 O         2.391413         0.453018        -0.982482
 H        -0.642359        -0.421664         0.878470
 H        -0.089899         1.113244         0.173478
 H        -0.578256        -0.287919        -0.909794
 H         2.454793        -1.723765         1.412375
 H         2.424631        -2.035279        -0.488937
 H         5.453193        -0.267877        -0.042180
 H         4.740672         1.282865         0.510062
 H         2.447837        -0.866633         2.695770
 H         3.180754         0.780793         3.089331
 H         2.223505         1.790034         1.020041
