19
Iteration:  3359charge 0 multiplicity 1
 C        -0.093684         0.064792        -0.083476
 C         1.397150        -0.080035         0.192355
 C         2.228002        -1.370351         0.083983
 C         3.162616        -0.139185         0.120116
 C         4.657585        -0.177172         0.503124
 O         4.490662         0.087169         1.968350
 C         3.023640         0.059518         2.465645
 C         2.371955         0.546344         1.118852
 O         2.380819         0.505798        -0.931202
 H        -0.597191        -0.233805         0.842291
 H        -0.376329         1.019447        -0.239311
 H        -0.388775        -0.473084        -1.002386
 H         2.207127        -2.155573         0.906678
 H         2.008967        -1.793589        -0.929987
 H         5.145620        -1.170070         0.460376
 H         5.145317         0.623131        -0.125618
 H         2.955840        -0.835488         2.937375
 H         2.980255         0.853876         3.224517
 H         2.436484         1.673430         1.078304
