19
Iteration:  4010
 C        -0.116072         0.129779        -0.020893
 C         1.317883        -0.143746         0.203749
 C         2.145633        -1.410905        -0.042894
 C         3.227114        -0.175225         0.070769
 C         4.693052         0.051217         0.600334
 O         4.478401        -0.046438         2.003699
 C         3.089057         0.084807         2.401134
 C         2.415559         0.507150         1.198635
 O         2.391075         0.531246        -0.932522
 H        -0.320299         0.203775        -1.150762
 H        -0.754057        -0.731928        -0.020023
 H        -0.756583         0.878265         0.537774
 H         2.206837        -2.326942         0.562129
 H         2.169426        -1.873473        -1.037716
 H         5.398586        -0.726893         0.411945
 H         4.979551         1.055700         0.193835
 H         2.776424        -1.102099         2.626744
 H         2.875120         0.636219         3.341621
 H         2.676670         1.554174         1.024590
