19
Iteration:  4259
 C        -0.058708         0.060082        -0.101201
 C         1.431074        -0.018865         0.157790
 C         2.255630        -1.282049        -0.067097
 C         3.214487        -0.005939         0.078492
 C         4.597765        -0.021065         0.595597
 O         4.494507        -0.043600         2.025743
 C         3.088263        -0.239934         2.422587
 C         2.342181         0.470307         1.276007
 O         2.264589         0.614063        -0.954514
 H        -0.525813         0.790897         0.572973
 H        -0.265740         0.400547        -1.081369
 H        -0.637249        -0.910757         0.033275
 H         2.584562        -2.129551         0.613074
 H         2.353851        -1.596089        -1.108519
 H         5.331627        -0.837339         0.315979
 H         5.204447         0.875628         0.282968
 H         2.883940        -1.248969         2.671328
 H         2.858606         0.280743         3.383510
 H         2.042208         1.541780         1.385924
