19
Iteration:  4861
 C        -0.110351         0.162420        -0.089793
 C         1.404288        -0.135345         0.202582
 C         2.303272        -1.318800        -0.134856
 C         3.199994        -0.139030         0.128792
 C         4.687341         0.056437         0.477675
 O         4.479828         0.041814         2.022734
 C         3.066064        -0.264776         2.446595
 C         2.319908         0.425240         1.250805
 O         2.291523         0.642228        -0.873214
 H        -0.638595         1.042951         0.425665
 H        -0.340093         0.245545        -1.155039
 H        -0.657458        -0.689233         0.365122
 H         2.478568        -2.249091         0.512274
 H         2.229340        -1.522016        -1.249138
 H         5.453148        -0.729333         0.296487
 H         5.017644         1.002041         0.205640
 H         2.920897        -1.389491         2.395654
 H         2.897163         0.187006         3.509336
 H         2.277407         1.567535         1.478154
