19
Iteration:  1988
 C        -0.104910         0.053305        -0.074726
 C         1.446092        -0.115298         0.131852
 C         2.347054        -1.306816         0.191891
 C         3.188039         0.001633         0.102483
 C         4.612179         0.052326         0.548328
 O         4.446530        -0.230319         1.893863
 C         2.991658         0.056194         2.429360
 C         2.334700         0.605858         1.222784
 O         2.317306         0.415829        -1.022101
 H        -0.539645         0.163993         0.958602
 H        -0.050910         1.064385        -0.592942
 H        -0.452022        -0.859523        -0.588392
 H         2.477956        -1.790434         1.200095
 H         2.378139        -1.907147        -0.743384
 H         5.281767        -0.737054        -0.035777
 H         5.045924         1.097364         0.338237
 H         2.657875        -0.838115         2.883456
 H         3.297768         0.767160         3.227316
 H         2.324243         1.733081         1.326482
