19
Iteration:  3055
 C        -0.062555         0.124869        -0.112999
 C         1.426987        -0.055227         0.069367
 C         2.277142        -1.330220         0.060674
 C         3.114171        -0.122121         0.160658
 C         4.558554        -0.138673         0.499792
 O         4.538441         0.002402         1.944723
 C         3.071176         0.088162         2.537810
 C         2.362128         0.472346         1.310764
 O         2.321889         0.457879        -1.003829
 H        -0.521859        -0.051466         0.923012
 H        -0.364215         1.127426        -0.428924
 H        -0.646519        -0.510924        -0.922949
 H         2.362553        -2.021619         0.884694
 H         2.238940        -1.833788        -0.872338
 H         5.154510        -1.114173         0.171830
 H         5.030707         0.859072         0.123651
 H         2.960131        -0.895643         2.893213
 H         3.041122         0.872347         3.285921
 H         2.434902         1.571868         1.126952
