19
Iteration:    43
 C        -0.088914         0.262350        -0.124935
 C         1.373217        -0.169354         0.045822
 C         2.271161        -1.458506        -0.035272
 C         3.156023        -0.329525         0.099529
 C         4.479225         0.053114         0.590112
 O         4.530037         0.184551         2.065638
 C         3.183398        -0.002280         2.508630
 C         2.367161         0.397744         1.213337
 O         2.319415         0.450582        -0.956517
 H        -0.689438        -0.144623         0.748527
 H        -0.064611         1.268238        -0.081474
 H        -0.429302        -0.122167        -0.994993
 H         2.276025        -1.983809         0.923620
 H         2.172257        -1.993104        -0.949537
 H         5.385722        -0.460320         0.243493
 H         4.714006         1.067939         0.098924
 H         3.045848        -1.047145         2.902733
 H         3.069967         0.635275         3.377289
 H         2.457902         1.410483         0.973054
