19
Iteration:   216
 C        -0.074344        -0.006452        -0.101233
 C         1.396960        -0.118503         0.199656
 C         2.269127        -1.323472         0.086525
 C         3.200731        -0.057687         0.042846
 C         4.683188         0.120872         0.623812
 O         4.448922        -0.313698         1.990136
 C         3.120274         0.152640         2.401166
 C         2.351164         0.633496         1.152687
 O         2.254436         0.456589        -0.986791
 H        -0.589494        -0.305680         0.926898
 H        -0.182676         0.989462        -0.375095
 H        -0.355291        -0.605898        -0.920385
 H         2.365535        -2.148063         0.816573
 H         2.102135        -1.808780        -0.880710
 H         5.431353        -0.590989         0.266585
 H         4.906135         1.235417         0.515528
 H         2.605218        -0.690854         2.955957
 H         3.178692         0.955225         3.119646
 H         2.343106         1.700554         1.205922
