19
Iteration:   217
 C        -0.069776        -0.007690        -0.102556
 C         1.391788        -0.125822         0.204109
 C         2.272686        -1.324424         0.078794
 C         3.198716        -0.064109         0.044137
 C         4.677825         0.109705         0.625255
 O         4.457290        -0.311710         1.993982
 C         3.117033         0.163082         2.398649
 C         2.349487         0.631099         1.152449
 O         2.253922         0.466064        -0.981693
 H        -0.603011        -0.297539         0.945701
 H        -0.182760         0.986021        -0.376112
 H        -0.350184        -0.613745        -0.920578
 H         2.326094        -2.108616         0.793494
 H         2.127456        -1.805543        -0.893711
 H         5.410374        -0.582149         0.270214
 H         4.942030         1.236154         0.497565
 H         2.623304        -0.674900         2.928451
 H         3.176721         0.948867         3.130565
 H         2.321326         1.686953         1.168418
