19
Iteration:   196
 C        -0.089034         0.086603        -0.061804
 C         1.426202        -0.037111         0.107991
 C         2.381144        -1.316130         0.274365
 C         3.219814        -0.054080         0.081826
 C         4.586520         0.247770         0.578558
 O         4.377128        -0.391141         1.861183
 C         3.054084         0.051658         2.444289
 C         2.387282         0.623801         1.155843
 O         2.307570         0.378864        -1.050332
 H        -0.519332        -0.516130         0.931707
 H        -0.521330         1.049322        -0.179624
 H        -0.311735        -0.479628        -0.947535
 H         2.243333        -1.743018         1.201932
 H         2.517516        -2.122194        -0.458811
 H         5.386288        -0.312687         0.148304
 H         4.839032         1.380609         0.651257
 H         2.640863        -0.857855         2.859567
 H         3.190465         0.715455         3.300167
 H         2.410464         1.677079         1.086902
