19
Iteration:  1838
 C        -0.149349         0.114268        -0.041138
 C         1.377106        -0.111208         0.116505
 C         2.208402        -1.357155         0.083026
 C         3.196223        -0.250253         0.114222
 C         4.592860        -0.005663         0.542488
 O         4.485217         0.013454         1.942101
 C         3.082915         0.090089         2.451202
 C         2.359918         0.461671         1.167027
 O         2.454099         0.511167        -0.933812
 H        -0.599937        -0.594901         0.721403
 H        -0.390867         1.135239         0.027439
 H        -0.427073        -0.100378        -1.045326
 H         2.287826        -2.029591         0.931605
 H         2.232080        -1.977885        -0.826009
 H         5.232136        -0.853248         0.143417
 H         4.966171         1.021254         0.243921
 H         2.642877        -0.927844         2.842357
 H         3.025399         0.894836         3.258962
 H         2.415548         1.574792         0.922539
