19
Iteration:  2565
 C        -0.112790         0.070774         0.070384
 C         1.415811        -0.116251         0.130878
 C         2.312698        -1.326291         0.106883
 C         3.238511        -0.129930         0.047176
 C         4.578263         0.040895         0.571804
 O         4.376887        -0.336524         1.943527
 C         3.005162         0.242592         2.369000
 C         2.345583         0.680132         1.128314
 O         2.446418         0.419554        -0.979110
 H        -0.560884        -0.516902         0.913546
 H        -0.308740         1.132596         0.088424
 H        -0.515115        -0.272727        -0.863392
 H         2.293374        -1.973345         0.983239
 H         2.345493        -1.883480        -0.869494
 H         5.430470        -0.511064         0.222933
 H         4.976789         1.047477         0.558801
 H         2.664152        -0.744892         2.834904
 H         3.274552         0.941740         3.081249
 H         2.253263         1.734004         1.072444
