19
Iteration:   230charge 0 multiplicity 1
 C        -0.063542        -0.010003        -0.066480
 C         1.390720        -0.174936         0.158875
 C         2.325835        -1.378671        -0.011111
 C         3.195559        -0.101132         0.120079
 C         4.604291        -0.050630         0.571426
 O         4.504396        -0.215517         2.007178
 C         3.067071         0.232081         2.431880
 C         2.346254         0.581036         1.154549
 O         2.268183         0.609298        -0.913827
 H        -0.845160        -0.207928         0.802483
 H        -0.345962         0.996978        -0.417788
 H        -0.368765        -0.758229        -0.831941
 H         2.322411        -1.966808         0.820386
 H         2.437001        -1.875459        -0.977423
 H         5.192430        -0.820460         0.143102
 H         5.107027         0.984877         0.391269
 H         2.677499        -0.632903         2.867171
 H         3.229675         1.048334         3.147267
 H         2.263944         1.591875         0.808680
