19
Iteration:   657charge 0 multiplicity 1
 C        -0.207235         0.043417        -0.098064
 C         1.367090        -0.145319         0.200734
 C         2.317226        -1.358845         0.084431
 C         3.183113        -0.115547         0.080610
 C         4.631006         0.062756         0.490287
 O         4.494227        -0.201533         2.017356
 C         3.087391         0.108888         2.435653
 C         2.344930         0.594858         1.181894
 O         2.380301         0.524523        -0.967467
 H        -0.663014        -0.502843         0.651122
 H        -0.553670         1.170941        -0.146617
 H        -0.435220        -0.504999        -1.045859
 H         2.457559        -2.075651         0.925981
 H         2.409578        -1.958372        -0.826345
 H         5.409413        -0.686806         0.225976
 H         4.940637         1.080081         0.338467
 H         2.730641        -0.822768         2.805849
 H         3.150694         0.931374         3.278552
 H         2.305248         1.751217         1.041430
