19
Iteration:  4895charge 0 multiplicity 1
 C        -0.090823         0.079200        -0.119354
 C         1.323982        -0.149785         0.071001
 C         2.346171        -1.323287        -0.067002
 C         3.158292        -0.014243         0.087743
 C         4.647432         0.002174         0.509036
 O         4.488091        -0.004399         1.992955
 C         3.152052        -0.254513         2.452640
 C         2.307737         0.337200         1.304592
 O         2.316746         0.794936        -0.841385
 H        -0.310728         1.215340        -0.168828
 H        -0.600453        -0.423629        -0.960468
 H        -0.635603        -0.294338         0.769021
 H         2.339529        -2.037386         0.761927
 H         2.255330        -1.853838        -1.088703
 H         5.335516        -0.837232         0.266363
 H         5.142054         0.915894         0.255540
 H         2.924824        -1.338349         2.643944
 H         2.897361         0.268419         3.459697
 H         2.064571         1.464215         1.327225
