19
Iteration:   851charge 0 multiplicity 1
 C        -0.040835         0.125883        -0.234684
 C         1.341570        -0.103864         0.183445
 C         2.200390        -1.411029         0.001517
 C         3.123131        -0.230720         0.025371
 C         4.621449        -0.081540         0.592098
 O         4.502020         0.293213         1.936206
 C         3.183115        -0.119828         2.495340
 C         2.359660         0.404031         1.312119
 O         2.301147         0.594674        -0.849496
 H        -0.654998        -0.519636         0.420913
 H        -0.403335         1.247564        -0.066490
 H        -0.295135        -0.113976        -1.330566
 H         2.228601        -2.147338         0.835588
 H         2.015270        -1.911732        -0.930513
 H         5.247828        -1.020647         0.496659
 H         5.321204         0.575912         0.048659
 H         3.192095        -1.263160         2.616440
 H         2.969091         0.310318         3.457343
 H         2.489918         1.494404         1.120093
