19
Iteration:  2611charge 0 multiplicity 1
 C        -0.083516         0.137783        -0.196786
 C         1.432699        -0.034146         0.160896
 C         2.362613        -1.384884         0.208428
 C         3.150333        -0.133724         0.110833
 C         4.611829         0.001714         0.512077
 O         4.462897        -0.226435         1.940658
 C         3.098024         0.053309         2.449238
 C         2.326821         0.636539         1.225906
 O         2.243207         0.495509        -0.937213
 H        -0.759796         0.165976         0.725621
 H        -0.062551         0.867314        -0.955135
 H        -0.322682        -0.821036        -0.817161
 H         2.411903        -1.888727         1.164514
 H         2.329488        -2.051101        -0.625685
 H         5.316901        -0.654430         0.101517
 H         5.079296         0.986239         0.151344
 H         2.666960        -0.934385         2.848984
 H         3.295613         0.811913         3.229483
 H         2.381494         1.726917         1.029722
