19
Iteration:  3342
 C        -0.106870         0.112133        -0.006274
 C         1.408447        -0.079939        -0.000239
 C         2.241341        -1.354992         0.033171
 C         3.197263        -0.144720         0.130095
 C         4.657376        -0.148214         0.601966
 O         4.526751         0.077791         2.007247
 C         3.097114         0.082200         2.395744
 C         2.313647         0.579202         1.235367
 O         2.297182         0.431887        -0.998155
 H        -0.490396        -0.089751         1.019084
 H        -0.357409         1.216012        -0.457319
 H        -0.624570        -0.683107        -0.570537
 H         2.219666        -2.006864         0.873906
 H         2.396847        -2.010631        -0.845713
 H         5.019580        -1.162200         0.362207
 H         5.292509         0.669876         0.192000
 H         2.639345        -1.097679         2.620957
 H         3.152449         0.649631         3.344942
 H         2.296487         1.655866         1.186380
