19
Iteration:  1041charge 0 multiplicity 1
 C        -0.024074         0.146747        -0.126934
 C         1.412474        -0.060413         0.103088
 C         2.254675        -1.446431         0.121164
 C         3.165644        -0.145110         0.147962
 C         4.591326        -0.055949         0.503828
 O         4.468153         0.112501         1.905406
 C         3.061172        -0.076954         2.435205
 C         2.347264         0.504597         1.282072
 O         2.351470         0.514586        -0.924918
 H        -0.695004        -0.582686         0.508267
 H        -0.408738         1.190366         0.037907
 H        -0.256597        -0.088592        -1.169586
 H         2.177621        -2.071436         0.928555
 H         2.290457        -1.868495        -0.864351
 H         5.288564        -0.871337         0.255613
 H         5.055679         0.905932         0.280075
 H         2.637184        -1.116235         2.554720
 H         3.058209         0.351432         3.464294
 H         2.463619         1.563674         1.272222
