19
Iteration:   522charge 0 multiplicity 1
 C        -0.031535         0.047997        -0.174550
 C         1.364239        -0.090405         0.167874
 C         2.160786        -1.382284         0.114255
 C         3.150977        -0.075062         0.168851
 C         4.579252        -0.048333         0.570559
 O         4.530248         0.167569         2.031011
 C         3.160289        -0.132908         2.416068
 C         2.422034         0.584275         1.217091
 O         2.292643         0.504889        -1.009240
 H        -0.606709        -0.778937         0.438399
 H        -0.394165         0.996777         0.032478
 H        -0.149342        -0.132044        -1.226536
 H         2.118607        -2.161134         0.907171
 H         2.150451        -1.893198        -0.884279
 H         4.964186        -1.028321         0.219579
 H         5.192574         0.662817         0.094888
 H         2.939805        -1.238193         2.314300
 H         2.975127         0.175338         3.355913
 H         2.397637         1.650914         1.196511
