19
Iteration:  1326
 C         0.001350         0.171221        -0.171380
 C         1.413731        -0.113229         0.122712
 C         2.277375        -1.368603         0.000866
 C         3.188044        -0.255370         0.178239
 C         4.572989        -0.064084         0.519103
 O         4.488298         0.127315         1.956363
 C         3.130534         0.004271         2.431621
 C         2.350730         0.469020         1.321696
 O         2.232978         0.491312        -0.886139
 H        -0.803429         0.052990         0.683129
 H        -0.047720         1.193714        -0.442990
 H        -0.255064        -0.473315        -1.046340
 H         2.403662        -2.141449         0.781180
 H         2.184895        -1.885159        -0.961887
 H         5.238340        -0.969278         0.344612
 H         4.973265         0.870623         0.182672
 H         2.781972        -0.927147         2.603211
 H         2.980222         0.598642         3.306697
 H         2.211275         1.504484         1.150040
