19
Iteration:   117charge 0 multiplicity 1
 C        -0.142036        -0.072296        -0.103930
 C         1.381879        -0.061278         0.007200
 C         2.174104        -1.289385        -0.058097
 C         3.218757        -0.202723         0.145022
 C         4.751227        -0.146122         0.621233
 O         4.535304         0.023039         2.024182
 C         3.114078         0.149356         2.440475
 C         2.317078         0.486710         1.214128
 O         2.264598         0.628565        -0.908245
 H        -0.514939        -0.758650         0.885865
 H        -0.446418         0.975983        -0.092408
 H        -0.356597        -0.647861        -0.999990
 H         2.034855        -1.833471         0.929256
 H         2.215016        -1.833705        -0.987814
 H         5.258423        -1.174978         0.512518
 H         5.324927         0.742875         0.204209
 H         2.857218        -0.902584         2.773079
 H         3.123394         0.907810         3.200927
 H         2.349420         1.574552         1.079493
