19
Iteration:  3683charge 0 multiplicity 1
 C        -0.098452         0.132314        -0.082945
 C         1.331602        -0.165232         0.007961
 C         2.270567        -1.319100         0.038499
 C         3.208482        -0.124497         0.163696
 C         4.745851        -0.166080         0.613498
 O         4.550099         0.056843         1.968311
 C         3.073364         0.041094         2.412937
 C         2.323232         0.499629         1.195711
 O         2.231227         0.550055        -0.904761
 H        -0.235541         0.975463        -0.803646
 H        -0.604245        -0.725296        -0.480567
 H        -0.489802         0.337177         0.852144
 H         2.264307        -2.100527         0.848367
 H         2.264496        -1.809801        -1.018562
 H         5.261037        -1.115935         0.316915
 H         5.153387         0.654946         0.101750
 H         2.802761        -1.003611         2.913897
 H         2.943287         0.558066         3.429743
 H         2.309119         1.585581         1.183720
