19
Iteration:  2990
 C        -0.078580         0.166391         0.002131
 C         1.386767        -0.082847         0.124128
 C         2.283367        -1.365889         0.115615
 C         3.169576        -0.106804         0.059992
 C         4.577672        -0.077722         0.588533
 O         4.468595        -0.029318         2.016895
 C         3.103169         0.081990         2.409447
 C         2.370466         0.581710         1.145731
 O         2.353144         0.387811        -1.057255
 H        -0.470272        -0.814527         0.344675
 H        -0.199691         0.997058         0.588473
 H        -0.487202         0.401076        -1.042518
 H         2.334953        -1.960146         1.050119
 H         2.105270        -2.046392        -0.697423
 H         5.166797        -1.047837         0.249390
 H         4.959475         0.913408         0.206971
 H         2.603481        -0.867286         2.528521
 H         3.027222         0.500118         3.409842
 H         2.490245         1.664248         1.208559
