19
Iteration:  4405
 C        -0.154898        -0.004870        -0.119788
 C         1.340030        -0.102963         0.158956
 C         2.328752        -1.280873        -0.051191
 C         3.289574        -0.025494         0.115683
 C         4.700779         0.137971         0.583114
 O         4.417553        -0.339511         1.953119
 C         3.021325        -0.107687         2.393177
 C         2.406231         0.565227         1.236611
 O         2.271692         0.697804        -0.830480
 H        -0.219608         0.955997        -0.596108
 H        -0.732309        -0.674764        -0.802572
 H        -0.611476        -0.245008         0.883011
 H         2.549615        -2.223955         0.606313
 H         2.565201        -1.733068        -1.075899
 H         5.462921        -0.486332         0.121906
 H         4.988934         1.304816         0.448038
 H         2.639798        -1.089368         2.699555
 H         3.050979         0.451659         3.264826
 H         2.517092         1.667837         1.247557
