19
Iteration:   676charge 0 multiplicity 1
 C        -0.083855        -0.023278        -0.111281
 C         1.369605        -0.130653         0.061276
 C         2.409160        -1.357710         0.118988
 C         3.193664        -0.023364         0.105681
 C         4.630193         0.032793         0.626233
 O         4.432811        -0.334902         1.942054
 C         3.150123         0.218673         2.420539
 C         2.338522         0.554379         1.174198
 O         2.216993         0.567287        -0.919937
 H        -0.694185        -0.433148         0.646229
 H        -0.239919         1.073916        -0.058242
 H        -0.365478        -0.388141        -1.137887
 H         2.378656        -1.962266         1.043016
 H         2.315354        -2.018425        -0.762517
 H         5.174031        -0.833451         0.120096
 H         5.003141         1.047300         0.422830
 H         2.786204        -0.489070         3.187099
 H         3.341007         1.200208         2.859117
 H         2.237295         1.662623         1.130281
