19
Iteration:   526charge 0 multiplicity 1
 C        -0.046554         0.021800        -0.182253
 C         1.318261        -0.080356         0.173788
 C         2.159591        -1.385194         0.079056
 C         3.120561        -0.091820         0.162233
 C         4.595727        -0.056325         0.585542
 O         4.573107         0.195549         2.029127
 C         3.161052        -0.167392         2.406001
 C         2.404818         0.559882         1.223181
 O         2.306936         0.515786        -1.012013
 H        -0.566916        -0.593797         0.434867
 H        -0.475067         1.097959         0.141760
 H        -0.117967        -0.138085        -1.317344
 H         2.135596        -2.024788         0.973290
 H         2.130785        -1.861185        -0.894460
 H         5.038670        -1.024777         0.426746
 H         5.305898         0.612587         0.075083
 H         2.992320        -1.204401         2.466463
 H         2.953826         0.293004         3.491399
 H         2.387103         1.703973         1.113037
