19
Iteration:  2989
 C        -0.083829         0.162371        -0.002488
 C         1.384803        -0.093933         0.125137
 C         2.280405        -1.368797         0.114502
 C         3.167692        -0.102287         0.061937
 C         4.585239        -0.077777         0.587654
 O         4.474686        -0.030513         2.014261
 C         3.098256         0.073059         2.413643
 C         2.364160         0.590266         1.139924
 O         2.359405         0.388076        -1.051400
 H        -0.491907        -0.813389         0.348752
 H        -0.214220         1.035481         0.595922
 H        -0.498231         0.422161        -1.037473
 H         2.330497        -1.953599         1.033150
 H         2.104124        -2.036677        -0.684042
 H         5.155351        -1.045956         0.241091
 H         4.997918         0.935260         0.198502
 H         2.589370        -0.841674         2.535071
 H         3.058752         0.543133         3.408202
 H         2.489749         1.675690         1.219091
