19
Iteration:  4852
 C        -0.228853         0.131728        -0.077669
 C         1.345935        -0.112727         0.169577
 C         2.257750        -1.323834        -0.110133
 C         3.294634        -0.125239         0.061684
 C         4.691495         0.084494         0.537487
 O         4.457895         0.028948         2.054675
 C         3.102498        -0.281485         2.406149
 C         2.351441         0.412787         1.228003
 O         2.321512         0.649821        -0.856015
 H        -0.322017         1.086656         0.592762
 H        -0.375384         0.357695        -1.158318
 H        -0.716946        -0.837614         0.141786
 H         2.437732        -2.076832         0.629971
 H         2.233527        -1.761648        -1.170159
 H         5.416009        -0.761792         0.171865
 H         5.076078         1.080549         0.226495
 H         2.995862        -1.352213         2.612341
 H         3.085284         0.236402         3.446099
 H         2.342713         1.583428         1.306124
