19
Iteration:  2090
 C        -0.069559         0.023246        -0.121918
 C         1.419327        -0.118895         0.113813
 C         2.263593        -1.322115         0.211517
 C         3.132490        -0.117244         0.080431
 C         4.632134        -0.056597         0.507187
 O         4.432652        -0.125350         1.914647
 C         3.074894         0.118427         2.438668
 C         2.357573         0.609898         1.257140
 O         2.350101         0.496481        -0.984807
 H        -0.452168        -0.913268         0.526199
 H        -0.498850         0.975812         0.129691
 H        -0.212369        -0.013722        -1.259960
 H         2.331487        -1.824086         1.205906
 H         2.273487        -1.991108        -0.691251
 H         5.246359        -0.849601         0.149977
 H         5.139995         1.045265         0.363417
 H         2.931088        -0.848514         2.955621
 H         3.063957         0.907725         3.193262
 H         2.349770         1.766890         1.255104
