19
Iteration:  2264charge 0 multiplicity 1
 C        -0.055049         0.112704        -0.169266
 C         1.396967        -0.140657         0.225990
 C         2.269305        -1.381105         0.215245
 C         3.194140        -0.071199         0.106953
 C         4.582577        -0.008829         0.506464
 O         4.472388        -0.151906         1.956759
 C         3.084931         0.123644         2.448621
 C         2.300239         0.624352         1.176455
 O         2.359108         0.409816        -1.019633
 H        -0.728574        -0.031665         0.711512
 H        -0.266474         1.080322        -0.468667
 H        -0.323917        -0.628287        -0.946190
 H         2.355024        -2.013977         1.123449
 H         2.219166        -1.949332        -0.769920
 H         5.491808        -0.709634         0.137116
 H         4.881664         0.999243         0.191014
 H         2.857313        -0.857014         2.979143
 H         3.301400         0.928622         3.279259
 H         2.056595         1.778279         1.194090
