19
Iteration:  3196charge 0 multiplicity 1
 C        -0.168198        -0.003785         0.000510
 C         1.369375        -0.027310         0.075404
 C         2.316227        -1.308276         0.178994
 C         3.256497        -0.091196         0.061366
 C         4.603151        -0.049551         0.533156
 O         4.429860        -0.236682         1.959007
 C         3.098207         0.142353         2.458236
 C         2.385741         0.621996         1.099694
 O         2.376362         0.503456        -0.983806
 H        -0.503743        -0.938743         0.526401
 H        -0.597599         0.841638         0.440080
 H        -0.586281         0.076738        -1.056518
 H         2.194613        -1.898346         1.069020
 H         2.450821        -2.112594        -0.517771
 H         5.199823        -0.814749         0.252908
 H         5.025257         0.932944         0.325533
 H         2.425826        -0.679054         2.984114
 H         3.146305         1.003084         3.166517
 H         2.442865         1.743215         0.864697
