19
Iteration:  4661
 C        -0.052588         0.021653        -0.038087
 C         1.451167        -0.064883         0.110592
 C         2.283340        -1.238091        -0.081234
 C         3.162459        -0.020048        -0.011238
 C         4.591208         0.052246         0.574754
 O         4.449739        -0.158762         2.019578
 C         3.066472        -0.248417         2.479039
 C         2.369176         0.414203         1.232932
 O         2.326969         0.747760        -0.911701
 H        -0.355682         0.757330        -0.771403
 H        -0.363512        -0.990044        -0.315560
 H        -0.599515         0.164056         0.950740
 H         2.249762        -1.849104         0.878063
 H         2.252306        -1.722490        -1.091564
 H         5.317924        -0.537324         0.086301
 H         4.851131         1.118033         0.432898
 H         2.870510        -1.315116         2.740495
 H         2.851362         0.279170         3.386073
 H         2.470142         1.514810         1.328386
