19
Iteration:  2125charge 0 multiplicity 1
 C        -0.121047         0.163342        -0.275527
 C         1.264932        -0.125520         0.200826
 C         2.119501        -1.432429         0.193723
 C         3.219133        -0.192352         0.089717
 C         4.639475         0.069312         0.551094
 O         4.591274         0.014954         1.980272
 C         3.188651         0.049915         2.433828
 C         2.402416         0.570989         1.234827
 O         2.303753         0.367402        -0.911568
 H        -0.866897        -0.631635        -0.023464
 H        -0.536438         1.144949         0.197712
 H        -0.106924         0.080994        -1.446188
 H         2.107681        -2.197574         0.966319
 H         2.322334        -1.950796        -0.755726
 H         5.427327        -0.493419         0.025909
 H         4.796653         1.220245         0.179898
 H         2.832833        -1.031992         2.671166
 H         3.008002         0.688000         3.286681
 H         2.566547         1.647178         1.216712
