19
Iteration:  4460
 C        -0.186178        -0.014500        -0.033363
 C         1.407552        -0.109716         0.164276
 C         2.418686        -1.320113        -0.023803
 C         3.246181        -0.003336         0.106001
 C         4.584573         0.112661         0.571972
 O         4.446931        -0.398758         1.912239
 C         3.036605        -0.033182         2.420618
 C         2.319758         0.600825         1.181327
 O         2.356019         0.703773        -0.874736
 H        -0.691451         0.850109         0.444144
 H        -0.392019         0.081035        -1.126494
 H        -0.576918        -0.965767         0.366208
 H         2.383431        -2.096351         0.862725
 H         2.627530        -1.706495        -1.138223
 H         5.266765        -0.566165         0.102543
 H         4.936836         1.191882         0.645428
 H         2.562977        -0.984410         2.623877
 H         3.116110         0.670800         3.207458
 H         2.419617         1.687243         1.320668
