19
Iteration:   183
 C        -0.014699         0.055437        -0.054717
 C         1.409063        -0.155484         0.082208
 C         2.376269        -1.322388         0.330698
 C         3.181718        -0.014437         0.098123
 C         4.554775         0.165264         0.556233
 O         4.433546        -0.392501         1.880200
 C         3.025554         0.055502         2.318925
 C         2.275158         0.684000         1.155252
 O         2.387950         0.448315        -0.985010
 H        -0.657815        -0.450786         0.921997
 H        -0.093681         1.098642         0.154383
 H        -0.556984        -0.302526        -0.902648
 H         2.428514        -1.695964         1.389802
 H         2.445923        -2.045833        -0.469377
 H         5.435239        -0.269825        -0.028824
 H         4.723698         1.313473         0.504111
 H         2.448243        -0.862574         2.671359
 H         3.167091         0.766911         3.101553
 H         2.248707         1.762708         1.037002
