19
Iteration:  2743charge 0 multiplicity 1
 C        -0.107826         0.136145        -0.106973
 C         1.437133        -0.111629         0.145992
 C         2.204239        -1.396105         0.058135
 C         3.149068        -0.227444         0.212576
 C         4.504781        -0.072953         0.529952
 O         4.568237         0.033228         1.957156
 C         3.088919         0.074649         2.307479
 C         2.337102         0.542047         1.189695
 O         2.429125         0.485934        -0.847807
 H        -0.765652        -0.753646         0.165566
 H        -0.381665         0.909475         0.621670
 H        -0.282677         0.470659        -1.191089
 H         2.036506        -1.917241         1.007648
 H         2.205388        -1.847398        -0.901611
 H         5.084639        -0.968392         0.301784
 H         4.867038         0.942183         0.066504
 H         2.906621        -1.058630         2.724828
 H         3.138765         0.818325         3.151580
 H         2.305120         1.598316         0.818872
