19
Iteration:  1619
 C        -0.088983         0.142783        -0.190032
 C         1.429914        -0.179849         0.186201
 C         2.216025        -1.421818         0.019625
 C         3.161253        -0.208298         0.160945
 C         4.588791        -0.089017         0.538836
 O         4.542927         0.160063         1.914537
 C         3.112837         0.044940         2.387916
 C         2.222820         0.460837         1.336712
 O         2.409105         0.514982        -0.859254
 H        -0.956804        -0.445097         0.171505
 H        -0.342252         1.196168         0.244316
 H        -0.340209         0.205719        -1.306029
 H         2.309912        -2.171592         0.781734
 H         2.160523        -1.795834        -0.980837
 H         5.162066        -1.019449         0.342018
 H         5.150748         0.684367        -0.006130
 H         2.990924        -0.907209         2.799419
 H         3.005281         0.772468         3.177725
 H         2.344976         1.524922         1.168741
