19
Iteration:  2386
 C        -0.090637         0.047732         0.010971
 C         1.394151        -0.013445         0.125940
 C         2.197408        -1.354695        -0.001779
 C         3.206826        -0.160234         0.090108
 C         4.649479        -0.142887         0.627813
 O         4.517910         0.072633         2.043517
 C         3.021246         0.073964         2.381310
 C         2.410787         0.624399         1.127901
 O         2.311487         0.425199        -1.028551
 H        -0.374915        -0.280759         0.963711
 H        -0.518459         1.090992         0.013099
 H        -0.362554        -0.614352        -0.831765
 H         2.186695        -2.099320         0.866001
 H         1.951785        -1.918655        -0.924456
 H         5.263628        -1.158938         0.598942
 H         5.348735         0.610600         0.334585
 H         2.634082        -1.005739         2.542513
 H         3.061778         0.589185         3.409311
 H         2.494109         1.768636         0.989233
