19
Iteration:  3707charge 0 multiplicity 1
 C        -0.131656         0.159136        -0.116108
 C         1.367649        -0.095088         0.125031
 C         2.295744        -1.401635         0.047366
 C         3.157851        -0.082786         0.067836
 C         4.586226        -0.033065         0.546680
 O         4.517446        -0.048757         2.045776
 C         3.173808        -0.011280         2.499346
 C         2.353706         0.542181         1.167256
 O         2.301314         0.486765        -0.962720
 H        -0.194631         0.764427        -1.016430
 H        -0.593256        -0.778570        -0.301874
 H        -0.700500         0.601475         0.772530
 H         2.427305        -2.045783         0.883012
 H         2.361462        -1.960141        -0.938680
 H         5.104579        -0.903558         0.056492
 H         5.028155         0.960755         0.245831
 H         2.815454        -0.970142         2.979849
 H         3.038549         0.598195         3.402380
 H         2.398987         1.633291         1.093432
