19
Iteration:   519charge 0 multiplicity 1
 C        -0.034098         0.052414        -0.161651
 C         1.406643        -0.096001         0.160190
 C         2.169369        -1.375966         0.132123
 C         3.173346        -0.071881         0.151337
 C         4.569703        -0.055902         0.561421
 O         4.501892         0.146002         2.027219
 C         3.156126        -0.111922         2.400585
 C         2.412503         0.590752         1.223835
 O         2.287131         0.493783        -0.992323
 H        -0.606360        -0.801695         0.370377
 H        -0.406049         1.049032        -0.007450
 H        -0.185843        -0.156539        -1.205595
 H         2.110019        -2.198507         0.863063
 H         2.164858        -1.874587        -0.837387
 H         4.963247        -1.060484         0.157241
 H         5.195959         0.839675         0.059902
 H         2.928688        -1.219860         2.255950
 H         2.971496         0.188100         3.459866
 H         2.423169         1.671310         1.270775
