19
Iteration:  3384charge 0 multiplicity 1
 C        -0.052775         0.081059        -0.207845
 C         1.388911        -0.090961         0.219227
 C         2.202613        -1.414954         0.169194
 C         3.088654        -0.210233         0.036378
 C         4.598137        -0.096835         0.564421
 O         4.554032         0.034232         1.975515
 C         3.151527         0.103678         2.439431
 C         2.314968         0.569019         1.180466
 O         2.346269         0.519493        -0.941643
 H        -0.553797        -0.626569         0.426496
 H        -0.448995         1.047410         0.166676
 H        -0.209836         0.057939        -1.270610
 H         2.078292        -1.978737         1.091945
 H         1.997883        -2.062193        -0.746980
 H         5.148289        -0.996448         0.449064
 H         5.076401         0.833020         0.059444
 H         2.963978        -0.851835         2.756118
 H         3.156205         0.676770         3.366259
 H         2.509520         1.592583         0.897824
