19
Iteration:  3862charge 0 multiplicity 1
 C         0.015529         0.096058        -0.044713
 C         1.465220        -0.058587         0.129928
 C         2.415003        -1.343669         0.064854
 C         3.175066        -0.038752         0.041612
 C         4.546771         0.070503         0.552566
 O         4.428687        -0.213529         1.955992
 C         2.977228        -0.085739         2.426913
 C         2.387260         0.604577         1.208968
 O         2.259819         0.502460        -0.901221
 H        -0.528195        -0.713787        -0.443469
 H        -0.647612         0.333285         0.818800
 H        -0.139945         0.933163        -0.838366
 H         2.547362        -2.006406         0.931977
 H         2.300023        -1.857458        -0.835910
 H         5.222841        -0.670947         0.077051
 H         4.978094         0.976698         0.283453
 H         2.452327        -1.110424         2.767493
 H         2.907084         0.675532         3.262347
 H         2.531696         1.717495         1.093083
