19
Iteration:  1162charge 0 multiplicity 1
 C        -0.104422         0.001593        -0.203900
 C         1.415132        -0.068624         0.039827
 C         2.287713        -1.324900         0.181853
 C         3.168923        -0.047029         0.109089
 C         4.668771        -0.031500         0.560811
 O         4.515802        -0.127626         2.010087
 C         3.093730         0.013588         2.396288
 C         2.420371         0.612960         1.244785
 O         2.216755         0.525420        -0.930418
 H        -0.657595        -0.060288         0.828372
 H        -0.426899         0.900451        -0.554433
 H        -0.546522        -0.785654        -0.883484
 H         2.173924        -1.874740         1.091249
 H         2.243687        -1.823729        -0.793940
 H         5.120718        -0.934980         0.046637
 H         5.207674         0.906131         0.303896
 H         2.674203        -1.047971         2.714663
 H         3.119626         0.649064         3.331709
 H         2.395264         1.673084         1.248768
