19
Iteration:   361
 C        -0.041118         0.125117        -0.126991
 C         1.396135        -0.125070         0.141251
 C         2.246008        -1.402784         0.048331
 C         3.186003        -0.171272         0.013171
 C         4.626924         0.055957         0.516422
 O         4.527207        -0.042734         2.053189
 C         3.090120         0.077231         2.507287
 C         2.374936         0.471293         1.174842
 O         2.236239         0.472737        -0.930909
 H        -0.656501        -0.440705         0.552492
 H        -0.307815         1.153352        -0.051150
 H        -0.207835        -0.240890        -1.161805
 H         2.365633        -1.966353         0.962350
 H         1.956314        -1.947232        -0.844230
 H         5.434929        -0.550685         0.254436
 H         4.995674         1.077441         0.199056
 H         2.746148        -0.888116         2.904348
 H         2.939111         0.852029         3.341615
 H         2.396640         1.538108         1.148642
