19
Iteration:  4236
 C        -0.139014         0.111581        -0.125326
 C         1.409239        -0.125320         0.067838
 C         2.335057        -1.366918        -0.026573
 C         3.229068        -0.065107         0.108015
 C         4.644239         0.043638         0.591071
 O         4.495187        -0.116842         2.044626
 C         3.051354        -0.129344         2.369636
 C         2.367554         0.465068         1.206868
 O         2.228052         0.705212        -0.862373
 H        -0.510842         0.529006         0.851658
 H        -0.530440         0.661610        -0.923791
 H        -0.660376        -0.850217        -0.155770
 H         2.464091        -2.087331         0.875697
 H         2.543625        -1.865338        -1.042313
 H         5.285925        -0.779343         0.082545
 H         5.309512         0.889087         0.383644
 H         2.804203        -1.102132         2.614916
 H         3.035982         0.231248         3.473575
 H         2.338518         1.600898         1.180077
