19
Iteration:  3817
 C        -0.117762        -0.036311        -0.046629
 C         1.376905        -0.018449         0.118823
 C         2.284519        -1.314182         0.008126
 C         3.205721        -0.045353         0.050261
 C         4.587738         0.037000         0.580387
 O         4.443995        -0.314923         2.011887
 C         3.085533         0.097514         2.440998
 C         2.374340         0.544606         1.221947
 O         2.388449         0.615656        -1.016581
 H        -0.546492        -0.956688        -0.344405
 H        -0.491773        -0.104683         0.968870
 H        -0.689349         0.847151        -0.530475
 H         2.396024        -2.029561         0.841754
 H         2.305359        -1.858318        -0.940782
 H         5.296600        -0.661193         0.082935
 H         5.038053         0.971750         0.454484
 H         2.666764        -0.883939         2.982308
 H         3.205586         0.869932         3.272702
 H         2.363585         1.651901         1.347035
