19
Iteration:   133
 C        -0.101364        -0.035289        -0.084970
 C         1.374329        -0.096353         0.049339
 C         2.247093        -1.477387        -0.061399
 C         3.211778        -0.164271         0.132203
 C         4.650640        -0.101466         0.637449
 O         4.567061        -0.094618         2.098930
 C         3.115145         0.202082         2.448352
 C         2.400494         0.572774         1.111380
 O         2.193797         0.670447        -0.911431
 H        -0.518480        -0.571457         0.641773
 H        -0.551774         0.975482         0.012748
 H        -0.406458        -0.548997        -1.016404
 H         2.165545        -2.249495         0.658607
 H         2.236639        -1.852276        -1.119864
 H         5.224141        -0.878501         0.257926
 H         5.152709         0.768764         0.257456
 H         2.719940        -0.604492         3.011282
 H         3.074255         1.123856         3.104794
 H         2.379200         1.662978         0.962189
