19
Iteration:  1686charge 0 multiplicity 1
 C        -0.047063         0.041951        -0.091445
 C         1.407970        -0.091550         0.187417
 C         2.357957        -1.384184         0.154934
 C         3.155809        -0.039509         0.090138
 C         4.559159        -0.005116         0.438118
 O         4.396562        -0.086568         2.024594
 C         3.043821         0.018938         2.376915
 C         2.378350         0.657259         1.202939
 O         2.388888         0.448776        -0.977046
 H        -0.648410        -0.676522         0.650749
 H        -0.173338         1.044089         0.359272
 H        -0.280204        -0.165314        -1.156743
 H         2.297821        -2.108246         0.963955
 H         2.180121        -1.879935        -0.793255
 H         5.153811        -0.959423         0.159316
 H         5.113155         0.822036         0.051378
 H         2.592140        -0.895565         2.667643
 H         2.960123         0.722323         3.249080
 H         2.391937         1.765885         1.331285
