19
Iteration:   836
 C        -0.156186         0.188001        -0.206269
 C         1.325405        -0.139957         0.188505
 C         2.128981        -1.421379        -0.009267
 C         3.240739        -0.199332         0.158849
 C         4.671235        -0.097145         0.488014
 O         4.471743         0.372131         1.993677
 C         3.211595        -0.156554         2.381565
 C         2.340334         0.337042         1.262872
 O         2.387726         0.546273        -0.822318
 H        -1.018680        -0.324846         0.411813
 H        -0.269667         1.167425        -0.234788
 H        -0.149263        -0.176335        -1.204636
 H         2.068331        -2.118996         0.856315
 H         2.161982        -1.739623        -1.077449
 H         5.126647        -1.038215         0.482770
 H         5.134190         0.753925         0.004829
 H         3.178378        -1.291115         2.632312
 H         3.032282         0.418741         3.351793
 H         2.266958         1.377364         1.423434
