19
Iteration:  4842
 C        -0.170551         0.086924        -0.042434
 C         1.334832        -0.081883         0.048455
 C         2.277936        -1.359606        -0.073786
 C         3.188118        -0.063009         0.021039
 C         4.630563         0.086902         0.631569
 O         4.513221         0.009735         2.031815
 C         3.137466        -0.246005         2.377564
 C         2.413575         0.349715         1.242574
 O         2.338380         0.674140        -0.855538
 H        -0.631262         0.876613         0.688387
 H        -0.381013         0.517829        -1.050920
 H        -0.916938        -0.694636         0.152468
 H         2.080634        -1.982865         0.728030
 H         2.203055        -1.951466        -1.031609
 H         5.366924        -0.754633         0.295945
 H         5.113812         1.095795         0.414041
 H         2.876165        -1.270216         2.528700
 H         2.875627         0.315415         3.312051
 H         2.475180         1.472916         1.237722
