19
Iteration:   120
 C        -0.131459        -0.070690        -0.090783
 C         1.388404        -0.074783         0.005888
 C         2.169350        -1.307048        -0.060885
 C         3.210038        -0.218672         0.147065
 C         4.762276        -0.128309         0.628238
 O         4.549645        -0.004621         2.038349
 C         3.109313         0.178119         2.410098
 C         2.321073         0.487937         1.219983
 O         2.245196         0.647095        -0.904151
 H        -0.478814        -0.681852         0.786877
 H        -0.520031         0.901240        -0.125147
 H        -0.361880        -0.575516        -0.985146
 H         1.996751        -1.872513         0.825356
 H         2.286235        -1.876491        -0.963715
 H         5.188758        -1.072275         0.566923
 H         5.325199         0.719475         0.216702
 H         2.827826        -0.816891         2.746215
 H         3.143921         0.925025         3.203089
 H         2.351952         1.517399         1.020716
