19
Iteration:  1812
 C        -0.019955         0.029050        -0.138099
 C         1.422733        -0.088483         0.186653
 C         2.178634        -1.322327         0.135316
 C         3.209804        -0.106690         0.108752
 C         4.644425         0.025673         0.576110
 O         4.522984        -0.158866         1.963559
 C         3.088300         0.068396         2.449937
 C         2.383838         0.643175         1.204993
 O         2.204483         0.451462        -0.995069
 H        -0.633958        -0.170385         0.677399
 H        -0.196848         1.018744        -0.718850
 H        -0.156901        -0.714201        -0.980081
 H         2.213790        -2.143297         0.899781
 H         2.326866        -1.826292        -0.843154
 H         5.214820        -0.698705         0.064158
 H         5.033526         1.030700         0.359408
 H         2.544465        -0.875991         2.909813
 H         3.211167         0.786541         3.243359
 H         2.333654         1.759425         1.163823
