19
Iteration:  3855
 C        -0.056774         0.067804        -0.049337
 C         1.459814        -0.012205         0.096768
 C         2.392252        -1.371789         0.105906
 C         3.178678        -0.072067         0.037786
 C         4.579728         0.059979         0.560158
 O         4.444271        -0.236385         1.958162
 C         2.973420        -0.046728         2.377921
 C         2.393527         0.619252         1.243596
 O         2.262262         0.523867        -0.909597
 H        -0.352851        -0.884852        -0.587850
 H        -0.346645         0.459772         0.950339
 H        -0.244223         0.798739        -0.783673
 H         2.545995        -2.015519         0.940133
 H         2.296617        -1.824581        -0.902393
 H         5.243996        -0.680544         0.149397
 H         5.001902         1.142098         0.554225
 H         2.533365        -0.941428         2.521093
 H         2.978821         0.533823         3.246701
 H         2.412595         1.714398         1.214322
