19
Iteration:  4249charge 0 multiplicity 1
 C        -0.086082         0.077701        -0.076850
 C         1.367796        -0.081074         0.041800
 C         2.354346        -1.275131        -0.069174
 C         3.226214        -0.028935         0.122255
 C         4.729014        -0.009158         0.575975
 O         4.499575        -0.067807         2.021464
 C         3.044984        -0.223811         2.443935
 C         2.341891         0.484664         1.273043
 O         2.191208         0.636243        -0.912243
 H        -0.514779         0.738397         0.682859
 H        -0.108433         0.582926        -1.043373
 H        -0.728607        -0.930948        -0.116481
 H         2.197804        -2.038369         0.804440
 H         2.309513        -1.813679        -0.988680
 H         5.313944        -0.936065         0.321675
 H         5.144941         1.046248         0.315321
 H         2.761669        -1.265080         2.494177
 H         2.905395         0.408572         3.304585
 H         2.352727         1.624900         1.301559
