19
Iteration:  2269charge 0 multiplicity 1
 C        -0.034076         0.098069        -0.179067
 C         1.409879        -0.096893         0.172757
 C         2.245980        -1.397372         0.256737
 C         3.163675        -0.063580         0.077096
 C         4.641985         0.046415         0.538471
 O         4.483094        -0.179898         1.927575
 C         3.088922         0.119804         2.456764
 C         2.308059         0.586913         1.189093
 O         2.342218         0.379374        -0.973423
 H        -0.807022        -0.018574         0.584098
 H        -0.298659         1.225549        -0.371840
 H        -0.340035        -0.547019        -1.031881
 H         2.336613        -2.016819         1.160986
 H         2.140465        -1.953268        -0.659837
 H         5.358812        -0.532268         0.060599
 H         4.905996         1.129602         0.131272
 H         2.676125        -0.734203         2.991351
 H         3.183263         0.922942         3.123065
 H         2.175154         1.637693         1.156186
