19
Iteration:  4331
 C        -0.088326         0.107694        -0.120956
 C         1.339785        -0.180776         0.173142
 C         2.372723        -1.304509        -0.113323
 C         3.217385        -0.051104         0.068628
 C         4.618258         0.022740         0.602367
 O         4.517472        -0.072165         2.061340
 C         3.082657        -0.225053         2.409022
 C         2.367151         0.475673         1.299612
 O         2.242352         0.688113        -0.929572
 H        -0.067630         1.169293        -0.602686
 H        -0.681548        -0.647559        -0.776914
 H        -0.623196         0.209547         0.880005
 H         2.331607        -2.224848         0.366521
 H         2.100195        -1.496751        -1.213132
 H         5.354614        -0.699887         0.203814
 H         5.065233         0.991064         0.381849
 H         2.769117        -1.288664         2.629901
 H         2.874150         0.262123         3.424872
 H         2.232330         1.575142         1.334477
