19
Iteration:  2045charge 0 multiplicity 1
 C        -0.052905        -0.040920         0.114401
 C         1.465766        -0.029465         0.066283
 C         2.353494        -1.334451        -0.005900
 C         3.317446        -0.069394         0.059899
 C         4.693279        -0.018879         0.617709
 O         4.305569        -0.282516         2.051060
 C         3.042588         0.190846         2.412994
 C         2.381690         0.623912         1.078839
 O         2.207031         0.504439        -1.032660
 H        -0.283298        -0.247492         1.272359
 H        -0.498780         0.857464        -0.217244
 H        -0.443139        -0.813600        -0.578402
 H         2.451164        -1.969364         0.930164
 H         2.210053        -1.991947        -0.893926
 H         5.329103        -0.832954         0.302339
 H         5.163983         1.035717         0.335451
 H         2.340544        -0.463638         2.874157
 H         3.136276         1.066150         3.084536
 H         2.397010         1.779857         1.012160
