19
Iteration:   228
 C        -0.049253        -0.008891        -0.079011
 C         1.377292        -0.174778         0.179723
 C         2.318563        -1.365963        -0.005054
 C         3.196645        -0.102882         0.103862
 C         4.604845        -0.017698         0.591203
 O         4.507082        -0.240471         2.009664
 C         3.073078         0.237589         2.416818
 C         2.348169         0.592484         1.155593
 O         2.262556         0.586995        -0.925927
 H        -0.855722        -0.189335         0.819568
 H        -0.322457         0.937832        -0.363518
 H        -0.340191        -0.712537        -0.805171
 H         2.231931        -1.952633         0.863047
 H         2.419867        -1.827681        -0.993598
 H         5.270123        -0.728441         0.147609
 H         5.141973         0.982852         0.413064
 H         2.679736        -0.696878         2.841348
 H         3.233177         1.003168         3.143767
 H         2.220784         1.553891         0.793035
