19
Iteration:  3381charge 0 multiplicity 1
 C        -0.055071         0.075801        -0.180523
 C         1.383808        -0.107947         0.230303
 C         2.200171        -1.406625         0.148926
 C         3.093712        -0.235905         0.009105
 C         4.575176        -0.107247         0.563926
 O         4.533616         0.050266         1.973029
 C         3.172690         0.129145         2.427432
 C         2.330923         0.559150         1.200826
 O         2.364988         0.541419        -0.937650
 H        -0.630135        -0.552516         0.500332
 H        -0.420061         0.968918         0.065191
 H        -0.147966        -0.001861        -1.291183
 H         2.068101        -1.959914         1.134405
 H         2.052444        -2.083409        -0.760921
 H         5.161481        -1.042229         0.405348
 H         5.132912         0.824804         0.166760
 H         2.745413        -0.996960         2.716331
 H         3.124903         0.700921         3.374100
 H         2.546097         1.641559         0.877161
