19
Iteration:  2097charge 0 multiplicity 1
 C        -0.024671         0.018577        -0.182152
 C         1.389951        -0.065506         0.122991
 C         2.208835        -1.360068         0.240670
 C         3.196497        -0.160026         0.064036
 C         4.595508         0.010532         0.532696
 O         4.485440        -0.101498         1.888939
 C         3.099508         0.079623         2.501393
 C         2.333582         0.613550         1.232898
 O         2.327986         0.481596        -0.955224
 H        -0.507172        -0.811151         0.345521
 H        -0.473209         0.950903         0.163342
 H        -0.205570         0.075966        -1.216994
 H         2.139294        -1.943879         1.182144
 H         2.352081        -2.016868        -0.614628
 H         5.250961        -0.788016         0.069450
 H         4.883773         0.930965         0.167085
 H         2.759911        -0.864820         2.864250
 H         3.128159         0.875261         3.283913
 H         2.491601         1.705161         1.216215
