19
Iteration:  1300charge 0 multiplicity 1
 C        -0.173553         0.052312        -0.132075
 C         1.283619        -0.199294         0.106575
 C         2.196947        -1.415769         0.069405
 C         3.165435        -0.027256         0.122172
 C         4.617906        -0.069065         0.594536
 O         4.574517        -0.006022         1.959604
 C         3.123017         0.047446         2.465723
 C         2.381844         0.517605         1.243375
 O         2.440056         0.592005        -0.998924
 H        -0.620419        -0.415637         0.676388
 H        -0.657617         1.163413        -0.009968
 H        -0.531593        -0.402171        -1.097081
 H         2.341104        -2.011933         0.989005
 H         2.279828        -1.979940        -0.882507
 H         4.995720        -1.026098         0.286353
 H         5.342066         0.711016         0.288513
 H         2.692209        -0.928433         2.960813
 H         2.997375         0.864334         3.204398
 H         2.219104         1.619960         1.126613
