19
Iteration:  2265
 C        -0.049145         0.109970        -0.170774
 C         1.402267        -0.129595         0.214671
 C         2.263043        -1.384684         0.226450
 C         3.187345        -0.066568         0.099465
 C         4.595590         0.000869         0.515954
 O         4.474752        -0.158597         1.949876
 C         3.085307         0.123250         2.451248
 C         2.301057         0.613040         1.177168
 O         2.355428         0.402309        -1.009078
 H        -0.749001        -0.013026         0.667565
 H        -0.287442         1.117401        -0.432935
 H        -0.333151        -0.628415        -0.981475
 H         2.356550        -2.025727         1.145265
 H         2.194954        -1.956827        -0.763285
 H         5.482879        -0.665521         0.108151
 H         4.887196         1.050563         0.154487
 H         2.815102        -0.840811         2.993259
 H         3.281678         0.927712         3.247193
 H         2.068914         1.768741         1.189969
