19
Iteration:  4408
 C        -0.130331        -0.009456        -0.100538
 C         1.345248        -0.107393         0.130173
 C         2.347371        -1.275350        -0.054456
 C         3.251496        -0.041484         0.104946
 C         4.686287         0.137641         0.573890
 O         4.428371        -0.347630         1.955153
 C         3.033790        -0.100210         2.402862
 C         2.401888         0.566240         1.227738
 O         2.261784         0.695445        -0.816585
 H        -0.230833         1.032403        -0.612279
 H        -0.707550        -0.628331        -0.852159
 H        -0.557318        -0.283637         0.847916
 H         2.626252        -1.990973         0.631344
 H         2.522680        -1.769345        -1.043525
 H         5.448786        -0.542925         0.157226
 H         5.035930         1.269042         0.570476
 H         2.526615        -1.073498         2.623711
 H         3.041011         0.546633         3.320474
 H         2.443968         1.669714         1.281267
