19
Iteration:  2333
 C        -0.064314         0.010480        -0.013949
 C         1.400125        -0.142446         0.135345
 C         2.315639        -1.363625         0.161343
 C         3.187525        -0.075223         0.113129
 C         4.585546        -0.145898         0.484942
 O         4.394939        -0.136334         1.956920
 C         3.042165         0.255180         2.413193
 C         2.330119         0.667740         1.154141
 O         2.394354         0.458134        -0.985904
 H        -0.556662        -0.820294         0.468749
 H        -0.242739         1.053376         0.496665
 H        -0.110136         0.036772        -1.136265
 H         2.294843        -2.147787         0.994007
 H         2.390986        -1.791652        -0.851435
 H         5.236835        -1.019798         0.296839
 H         5.262978         0.708420         0.316159
 H         2.563460        -0.646102         2.900866
 H         3.206330         1.062652         3.130624
 H         2.185655         1.774819         1.019218
