19
Iteration:   949charge 0 multiplicity 1
 C        -0.127400        -0.012781         0.061206
 C         1.371011        -0.122328         0.142698
 C         2.430023        -1.246215         0.159096
 C         3.254131         0.067981         0.047284
 C         4.650856         0.124377         0.612974
 O         4.310412        -0.464046         1.944121
 C         3.070389         0.105247         2.362152
 C         2.337639         0.602349         1.127313
 O         2.351201         0.490637        -1.060110
 H        -0.502113        -0.149290         1.054053
 H        -0.381913         1.135685        -0.178998
 H        -0.690481        -0.708506        -0.644169
 H         2.726744        -1.875551         1.089291
 H         2.449846        -1.719110        -0.845776
 H         5.416713        -0.493212         0.104719
 H         4.913797         1.215211         0.740398
 H         2.461235        -0.764213         2.947999
 H         3.264136         0.824451         3.164643
 H         2.338114         1.708070         0.814837
