19
Iteration:  2664
 C        -0.087417         0.117138        -0.048170
 C         1.424303        -0.083954         0.092391
 C         2.210217        -1.342318         0.087700
 C         3.137912        -0.125336         0.054008
 C         4.555927        -0.144869         0.524273
 O         4.460202         0.071310         1.982909
 C         3.053416        -0.000083         2.453516
 C         2.394197         0.476264         1.199923
 O         2.432269         0.530179        -0.968908
 H        -0.421654         0.009184         1.016046
 H        -0.301836         1.099915        -0.391306
 H        -0.478081        -0.721463        -0.674723
 H         2.287777        -2.043091         0.945013
 H         2.232549        -1.880599        -0.887876
 H         5.219824        -1.062847         0.333954
 H         5.068820         0.758903         0.118880
 H         2.840077        -1.020490         3.091819
 H         3.024829         0.758395         3.254157
 H         2.411413         1.559333         1.154094
