19
Iteration:  1567
 C        -0.181733         0.105671        -0.056203
 C         1.395215        -0.074499         0.116788
 C         2.168149        -1.345279        -0.019251
 C         3.214273        -0.128123         0.100967
 C         4.773883        -0.074321         0.618787
 O         4.534734         0.110422         2.105100
 C         3.091801        -0.055477         2.412800
 C         2.338206         0.552189         1.117615
 O         2.312436         0.457620        -1.006019
 H        -0.724511        -0.113425         0.929138
 H        -0.632576         1.013192        -0.228571
 H        -0.534239        -0.706249        -0.621697
 H         2.108961        -2.035021         0.839368
 H         2.192763        -1.796434        -1.012804
 H         5.395991        -1.043991         0.559948
 H         5.339712         0.717888         0.186059
 H         2.949464        -1.221165         2.479892
 H         2.826338         0.521188         3.355921
 H         2.355355         1.659346         0.981905
