19
Iteration:  4612charge 0 multiplicity 1
 C        -0.066661         0.114534        -0.083761
 C         1.395110        -0.156182         0.182637
 C         2.361083        -1.327589        -0.154217
 C         3.131559        -0.035587         0.038476
 C         4.598011         0.044828         0.596166
 O         4.457453        -0.009100         2.027582
 C         3.121845        -0.272385         2.451974
 C         2.322763         0.367126         1.287807
 O         2.313183         0.747098        -0.939501
 H        -0.064101         1.068429        -0.652267
 H        -0.645485        -0.736646        -0.545052
 H        -0.540320         0.381097         0.850815
 H         2.565839        -2.005765         0.665860
 H         2.138710        -1.669113        -1.211175
 H         4.915826        -0.897531         0.081093
 H         5.192117         0.842811         0.185995
 H         2.826070        -1.361054         2.754484
 H         3.059575         0.212962         3.513695
 H         2.282222         1.386752         1.671704
