19
Iteration:  1397
 C        -0.020200         0.096537        -0.012311
 C         1.375235        -0.132980         0.120305
 C         2.247936        -1.380585         0.003123
 C         3.211215        -0.161423         0.098459
 C         4.686739        -0.088950         0.519749
 O         4.432533         0.087473         2.036015
 C         2.978860         0.023405         2.350893
 C         2.388430         0.527459         1.159981
 O         2.333542         0.521525        -0.891552
 H        -0.519905        -0.249008         0.831402
 H        -0.358131         1.191349         0.088330
 H        -0.482477        -0.405392        -0.870104
 H         2.424721        -1.987375         0.902406
 H         2.285310        -2.031153        -0.879119
 H         5.246497        -0.996626         0.409965
 H         5.067135         0.815858        -0.026594
 H         2.751268        -1.054317         2.548686
 H         2.835462         0.575929         3.298723
 H         2.499314         1.638168         1.056437
