19
Iteration:  2875
 C         0.005540         0.090650         0.057607
 C         1.499141        -0.057686         0.170069
 C         2.378234        -1.335309         0.122942
 C         3.199449        -0.056523         0.003565
 C         4.608823         0.009235         0.565898
 O         4.378465        -0.253081         1.973241
 C         2.993644         0.069787         2.397722
 C         2.341416         0.636475         1.194809
 O         2.279414         0.424832        -1.072360
 H        -0.609660         0.263701         0.926540
 H        -0.147182         0.999899        -0.636733
 H        -0.529201        -0.733305        -0.394434
 H         2.449149        -2.102024         0.889690
 H         2.206733        -1.729558        -0.894821
 H         5.266406        -0.787498         0.379575
 H         5.076559         1.080099         0.529604
 H         2.626199        -0.710973         2.895237
 H         3.016941         0.803053         3.178091
 H         2.227537         1.716374         1.107751
