19
Iteration:  2201charge 0 multiplicity 1
 C        -0.082964         0.058864         0.080385
 C         1.395546        -0.078372         0.049551
 C         2.218871        -1.346927        -0.025093
 C         3.248645        -0.230266         0.099167
 C         4.616427        -0.171324         0.713222
 O         4.505814         0.197144         2.067981
 C         3.056633        -0.000862         2.433197
 C         2.467557         0.588512         1.067645
 O         2.286237         0.507625        -1.082269
 H        -0.488686        -0.070195         1.086634
 H        -0.527413         1.048624        -0.311876
 H        -0.517504        -0.916349        -0.387993
 H         2.053246        -2.126225         0.759634
 H         1.997330        -1.824271        -1.031256
 H         4.931188        -1.155222         0.544356
 H         5.326373         0.540702         0.129976
 H         2.845802        -1.047263         2.694743
 H         2.655436         0.588237         3.219646
 H         2.435478         1.699938         1.056614
