19
Iteration:  2268charge 0 multiplicity 1
 C        -0.036094         0.099393        -0.176091
 C         1.409885        -0.102700         0.181899
 C         2.249033        -1.394965         0.251141
 C         3.167853        -0.062074         0.080638
 C         4.633697         0.033255         0.535302
 O         4.481229        -0.175432         1.931940
 C         3.088225         0.121446         2.457639
 C         2.305662         0.591404         1.185202
 O         2.345393         0.383746        -0.980687
 H        -0.795792        -0.004678         0.587864
 H        -0.309509         1.220574        -0.377709
 H        -0.343540        -0.577652        -1.031597
 H         2.345154        -2.026317         1.165158
 H         2.147700        -1.954092        -0.687781
 H         5.383332        -0.545545         0.068590
 H         4.903835         1.131985         0.116648
 H         2.702898        -0.758803         2.997116
 H         3.204320         0.911060         3.139480
 H         2.144949         1.667319         1.166021
