19
Iteration:  3549charge 0 multiplicity 1
 C        -0.116249         0.045108        -0.110199
 C         1.325021        -0.054723         0.091352
 C         2.228661        -1.300141         0.245741
 C         3.196726        -0.058182         0.071585
 C         4.652105         0.053104         0.596288
 O         4.428432        -0.238167         1.944680
 C         3.188400         0.082302         2.433303
 C         2.386140         0.608650         1.125269
 O         2.348695         0.415105        -1.020323
 H        -0.416458         0.256830         0.880902
 H        -0.493328         0.872073        -0.804243
 H        -0.456856        -0.853030        -0.456806
 H         2.293675        -1.847478         1.276472
 H         2.106326        -2.114689        -0.466425
 H         5.273645        -0.736531         0.160803
 H         5.069663         1.053410         0.406758
 H         2.699657        -0.809686         3.115091
 H         3.320453         0.958528         3.180446
 H         2.265288         1.705788         1.021173
