19
Iteration:  1943charge 0 multiplicity 1
 C        -0.139468         0.067374        -0.222823
 C         1.355323        -0.070005         0.140377
 C         2.193965        -1.378489         0.026125
 C         3.157622        -0.186879         0.114425
 C         4.611364        -0.007800         0.492353
 O         4.589655         0.027893         1.951193
 C         3.175034         0.077997         2.578384
 C         2.323174         0.538201         1.249223
 O         2.356059         0.446190        -0.869292
 H        -0.741969        -0.550702         0.434051
 H        -0.506466         1.151761        -0.013496
 H        -0.214722        -0.320353        -1.277654
 H         1.993304        -2.057266         0.890055
 H         2.044063        -1.854618        -0.977811
 H         5.297998        -0.957386         0.340467
 H         5.105888         0.832689        -0.039956
 H         2.808473        -0.862521         2.908432
 H         2.941123         0.780152         3.353760
 H         2.448371         1.607222         1.092574
