19
Iteration:  3725
 C        -0.085961         0.081051        -0.112595
 C         1.427411        -0.102378         0.238014
 C         2.196687        -1.342615         0.124671
 C         3.207741        -0.183990         0.088953
 C         4.603137         0.076885         0.523189
 O         4.466902        -0.131665         1.925216
 C         3.047438         0.002605         2.371354
 C         2.378473         0.549882         1.256379
 O         2.378540         0.534966        -0.950706
 H        -0.087952         0.676859        -1.068345
 H        -0.593466        -0.886799        -0.293787
 H        -0.360435         0.726274         0.640210
 H         2.172738        -2.019047         1.038246
 H         2.170376        -1.953256        -0.822333
 H         5.407971        -0.550510         0.197401
 H         4.865318         1.077191         0.240009
 H         2.657701        -0.996122         2.783241
 H         2.997481         0.705109         3.272019
 H         2.371274         1.623763         1.094973
