19
Iteration:  3351charge 0 multiplicity 1
 C        -0.085443         0.083434        -0.066143
 C         1.369323        -0.053708         0.087168
 C         2.255658        -1.346656         0.081485
 C         3.207576        -0.167969         0.117622
 C         4.653156        -0.160674         0.552895
 O         4.541895         0.086861         1.955947
 C         3.035464         0.064769         2.439634
 C         2.301803         0.556262         1.216560
 O         2.330073         0.447386        -0.959831
 H        -0.417272        -0.080477         0.951481
 H        -0.455164         1.136340        -0.231917
 H        -0.563855        -0.630181        -0.761565
 H         2.091175        -2.104674         0.841784
 H         2.284500        -1.690396        -1.014242
 H         5.091159        -1.108776         0.343331
 H         5.457323         0.577651         0.207480
 H         2.776225        -0.950093         2.837989
 H         2.932337         0.809313         3.237729
 H         2.429058         1.629091         1.050446
