19
Iteration:  4568charge 0 multiplicity 1
 C        -0.186896         0.117126        -0.086615
 C         1.334867        -0.066669         0.141564
 C         2.255027        -1.374359        -0.147537
 C         3.207441        -0.072829         0.135464
 C         4.657112         0.034696         0.585035
 O         4.531925         0.015242         2.052813
 C         3.128636        -0.258833         2.399380
 C         2.384436         0.457823         1.265904
 O         2.302657         0.669123        -0.896065
 H        -0.506086         1.148140        -0.175896
 H        -0.417746        -0.460203        -1.008191
 H        -0.797082        -0.468230         0.604507
 H         2.271200        -2.310682         0.461639
 H         2.307943        -1.617289        -1.261308
 H         5.452009        -0.668875         0.325239
 H         5.031981         1.019056         0.313833
 H         2.898435        -1.393945         2.446017
 H         2.946982         0.020379         3.517169
 H         2.517857         1.586988         1.310655
