19
Iteration:  4178
 C        -0.135547         0.026499        -0.088165
 C         1.423863        -0.102243         0.075342
 C         2.341391        -1.267995         0.029647
 C         3.252320        -0.082974         0.117178
 C         4.614377         0.114100         0.606549
 O         4.463520        -0.294724         1.988805
 C         3.061150        -0.092597         2.382632
 C         2.348924         0.557220         1.222561
 O         2.279687         0.639171        -0.923486
 H        -0.669749        -0.224145         0.822305
 H        -0.332411         1.133327        -0.218663
 H        -0.523520        -0.506417        -0.907708
 H         2.347143        -1.838266         0.963959
 H         2.488726        -1.944895        -0.874687
 H         5.366074        -0.521046         0.120245
 H         4.780017         1.163567         0.696109
 H         2.618858        -1.090287         2.608930
 H         3.187968         0.702052         3.195762
 H         2.393130         1.622870         0.952487
