19
Iteration:  1634
 C        -0.114452         0.176885        -0.208343
 C         1.249374        -0.159594         0.121336
 C         2.215529        -1.457282        -0.008412
 C         3.115822        -0.196216         0.131067
 C         4.547680        -0.042763         0.536230
 O         4.575824         0.130936         2.019781
 C         3.234138         0.058224         2.572801
 C         2.365012         0.479241         1.197696
 O         2.377184         0.495898        -0.918773
 H        -0.709876        -0.737702         0.153688
 H        -0.410389         1.017005         0.332145
 H        -0.064987         0.139533        -1.276941
 H         2.085789        -2.151589         0.855817
 H         2.271009        -1.980465        -0.993125
 H         5.218226        -0.948088         0.242392
 H         4.924922         0.887169         0.116375
 H         2.922791        -1.062457         2.760126
 H         3.266407         0.744963         3.491710
 H         2.317973         1.603523         1.150196
