19
Iteration:  1049
 C        -0.009247         0.176733        -0.101969
 C         1.371039        -0.109384         0.151255
 C         2.284495        -1.458161         0.094217
 C         3.164035        -0.189083         0.192461
 C         4.591124        -0.039980         0.488387
 O         4.431692         0.141531         1.954899
 C         3.052666        -0.089665         2.411641
 C         2.333624         0.524142         1.212092
 O         2.374927         0.528891        -0.931531
 H        -0.603541        -0.505163         0.436721
 H        -0.271340         1.286836         0.267610
 H        -0.173754         0.061063        -1.155336
 H         2.410757        -2.188946         0.980569
 H         2.180379        -1.932266        -0.942564
 H         5.094816        -1.014040         0.216583
 H         5.033699         0.881783         0.009908
 H         2.904620        -1.281631         2.447522
 H         3.050356         0.369534         3.428416
 H         2.438622         1.665853         1.115701
