19
Iteration:   393charge 0 multiplicity 1
 C        -0.129291        -0.113111        -0.064749
 C         1.374923        -0.016841         0.084387
 C         2.320112        -1.230318         0.183494
 C         3.239093        -0.024772         0.127609
 C         4.686802        -0.051388         0.465560
 O         4.458764        -0.228853         1.936814
 C         2.986168         0.072735         2.410556
 C         2.298056         0.711585         1.199390
 O         2.404959         0.499408        -0.936871
 H        -0.430503        -0.507335         0.948082
 H        -0.672539         0.762805        -0.277862
 H        -0.370266        -0.911535        -0.768034
 H         2.368192        -1.870332         1.063814
 H         2.185116        -1.766043        -0.816329
 H         5.217007        -0.946042         0.153888
 H         5.177054         0.963151         0.276200
 H         2.529401        -0.919675         2.662378
 H         3.003715         0.754092         3.331034
 H         2.292484         1.776466         1.102339
