19
Iteration:   699charge 0 multiplicity 1
 C        -0.031959        -0.095993        -0.087749
 C         1.420696        -0.073307         0.167319
 C         2.414346        -1.346607         0.091695
 C         3.190665         0.025259         0.065999
 C         4.662137         0.036043         0.490511
 O         4.291803        -0.447478         1.947744
 C         3.160638         0.278681         2.513195
 C         2.314302         0.663764         1.235625
 O         2.246986         0.508703        -0.974517
 H        -0.570566        -0.552767         0.608403
 H        -0.393758         1.023018        -0.032046
 H        -0.184570        -0.522921        -1.122776
 H         2.533211        -2.120510         0.906311
 H         2.290079        -1.801772        -0.900059
 H         5.290728        -0.715712        -0.103273
 H         4.951120         1.044626         0.578154
 H         2.578325        -0.362450         3.148563
 H         3.512346         1.183846         3.059716
 H         2.220787         1.815313         1.118337
