19
Iteration:  2374
 C        -0.094818        -0.031411         0.050649
 C         1.436838        -0.019258         0.103602
 C         2.158459        -1.303200         0.057514
 C         3.260260        -0.175040         0.030575
 C         4.769495        -0.191173         0.675565
 O         4.454652         0.035514         2.080976
 C         3.065449         0.083163         2.396147
 C         2.406515         0.669663         1.133297
 O         2.251672         0.476339        -1.096433
 H        -0.533408        -0.656056         0.779230
 H        -0.453270         0.970912         0.018096
 H        -0.583556        -0.423722        -0.862368
 H         2.079461        -2.034798         0.895584
 H         2.076981        -1.669565        -0.992540
 H         5.128127        -1.273247         0.399727
 H         5.260707         0.578903         0.178665
 H         2.727179        -0.945511         2.741316
 H         2.858390         0.889584         3.233124
 H         2.540455         1.824141         1.039356
