19
Iteration:   739
 C        -0.082534        -0.114829         0.032752
 C         1.465811        -0.031135         0.030620
 C         2.315174        -1.322899         0.179158
 C         3.260059        -0.030104         0.056676
 C         4.641591         0.076453         0.535521
 O         4.409645        -0.368306         1.979888
 C         3.002332         0.106523         2.421149
 C         2.362461         0.692310         1.167987
 O         2.317838         0.578142        -1.060427
 H        -0.528280        -0.685754         1.035526
 H        -0.523234         0.826920         0.044943
 H        -0.498081        -0.651446        -0.855430
 H         2.288294        -1.712365         1.180982
 H         2.013842        -1.858590        -0.721025
 H         5.254758        -0.809988         0.277298
 H         5.205922         1.057449         0.413939
 H         2.684710        -0.812611         3.009295
 H         3.022527         0.881248         3.179002
 H         2.289276         1.725761         1.178594
