19
Iteration:  3347charge 0 multiplicity 1
 C        -0.095137         0.107553        -0.046838
 C         1.377690        -0.054548         0.039248
 C         2.251968        -1.339673         0.057742
 C         3.217298        -0.170468         0.118228
 C         4.651991        -0.147396         0.577831
 O         4.546349         0.086069         1.968381
 C         3.056923         0.064791         2.423124
 C         2.294563         0.559345         1.248097
 O         2.311514         0.431712        -0.974425
 H        -0.438432        -0.120009         0.973757
 H        -0.368224         1.075055        -0.298059
 H        -0.607192        -0.676810        -0.618999
 H         2.111684        -2.115202         0.877610
 H         2.378556        -1.788415        -0.937265
 H         5.057733        -1.169880         0.296509
 H         5.420367         0.576736         0.299732
 H         2.687454        -0.879245         2.675705
 H         3.009018         0.751891         3.271214
 H         2.386796         1.669013         1.097058
