19
Iteration:  4163charge 0 multiplicity 1
 C        -0.069127         0.068847        -0.071493
 C         1.353736        -0.073462         0.072012
 C         2.415409        -1.361068         0.107723
 C         3.227125         0.009322         0.053174
 C         4.683107         0.116526         0.584192
 O         4.440969        -0.344129         1.971520
 C         3.009001        -0.024391         2.452862
 C         2.369848         0.522471         1.158962
 O         2.221422         0.646201        -0.945710
 H        -0.582818        -0.705837         0.533610
 H        -0.408123         1.101995         0.045027
 H        -0.441695        -0.231861        -1.162061
 H         2.459606        -1.976248         1.012425
 H         2.399672        -1.924554        -0.774916
 H         5.459637        -0.546747         0.275014
 H         5.165663         1.097262         0.370136
 H         2.657820        -1.060554         2.873826
 H         2.980550         0.553813         3.322681
 H         2.264201         1.596193         1.350875
