19
Iteration:  4283charge 0 multiplicity 1
 C        -0.111106         0.031009        -0.051335
 C         1.377244        -0.111976         0.130897
 C         2.253426        -1.343448        -0.110742
 C         3.180978        -0.056333         0.131854
 C         4.583102        -0.011426         0.519899
 O         4.476242        -0.006846         1.972581
 C         3.047576        -0.214196         2.406803
 C         2.333708         0.468511         1.284717
 O         2.462699         0.743086        -0.837525
 H        -0.422213         1.036940         0.228047
 H        -0.291346        -0.025723        -1.160959
 H        -0.855538        -0.757253         0.428650
 H         2.214030        -2.085312         0.781171
 H         2.390712        -1.857515        -1.032896
 H         5.327538        -0.785578         0.300435
 H         5.159431         0.946949         0.122279
 H         2.771742        -1.275515         2.532606
 H         2.849659         0.153864         3.364581
 H         2.283580         1.572529         1.088849
