19
Iteration:  2226
 C        -0.069329         0.019339         0.015610
 C         1.397337        -0.081251         0.053569
 C         2.268578        -1.336156         0.061775
 C         3.227430        -0.186800         0.057759
 C         4.735479        -0.231160         0.610520
 O         4.440708         0.081263         2.024380
 C         3.033113         0.089714         2.400100
 C         2.381241         0.613994         1.116408
 O         2.291400         0.557119        -0.974677
 H        -0.436639         0.022591         1.059247
 H        -0.617612         0.924447        -0.530694
 H        -0.446498        -0.974885        -0.307330
 H         2.093025        -1.962443         0.926241
 H         2.264422        -1.915261        -0.828795
 H         5.173264        -1.246573         0.470641
 H         5.390554         0.589560         0.156514
 H         2.604985        -0.901934         2.767185
 H         2.786950         0.806120         3.191302
 H         2.217154         1.639175         1.059814
