19
Iteration:  1609charge 0 multiplicity 1
 C        -0.013722         0.176520        -0.149643
 C         1.369888        -0.120559         0.146785
 C         2.249937        -1.423582         0.077728
 C         3.201194        -0.159315         0.125179
 C         4.651693        -0.164200         0.469485
 O         4.466236         0.210576         1.909865
 C         3.066149         0.001223         2.418309
 C         2.244929         0.441261         1.249996
 O         2.371054         0.513011        -0.820538
 H        -0.615360        -0.592422         0.466852
 H        -0.253648         1.228329         0.183255
 H        -0.076453        -0.089341        -1.212091
 H         2.201629        -2.207903         0.828373
 H         2.258285        -1.796006        -0.933000
 H         5.153828        -1.183691         0.268872
 H         5.206153         0.671266         0.095486
 H         2.825217        -1.026257         2.721546
 H         3.053226         0.753270         3.235286
 H         2.035427         1.495616         1.417294
