19
Iteration:  1508charge 0 multiplicity 1
 C        -0.134661         0.084982        -0.106340
 C         1.379139        -0.184735         0.132609
 C         2.313361        -1.353715         0.183391
 C         3.303889         0.027828         0.123608
 C         4.680259         0.073558         0.594455
 O         4.445806        -0.297375         1.919145
 C         3.061873         0.113283         2.448934
 C         2.341621         0.635095         1.126094
 O         2.259256         0.420506        -0.976983
 H        -0.529255        -0.106769         0.841564
 H        -0.152661         1.208947        -0.464159
 H        -0.580436        -0.501840        -0.977915
 H         2.295226        -2.118294         0.922744
 H         2.427650        -1.747281        -0.819163
 H         5.401537        -0.651853         0.244458
 H         5.047548         1.159864         0.450535
 H         2.703538        -0.767297         2.926726
 H         3.010403         0.909987         3.139089
 H         2.173429         1.713370         1.178855
