19
Iteration:  1977
 C         0.026027         0.063297        -0.132450
 C         1.405918        -0.117928         0.144577
 C         2.334362        -1.344110         0.196814
 C         3.186140        -0.081041         0.035350
 C         4.593503         0.062327         0.496469
 O         4.503035        -0.199001         1.988665
 C         3.087869         0.039245         2.441258
 C         2.308167         0.634598         1.223226
 O         2.219196         0.482447        -0.970721
 H        -0.638073         0.085507         0.755307
 H        -0.262510         1.015643        -0.701099
 H        -0.469201        -0.617779        -0.853953
 H         2.353724        -1.883454         1.188404
 H         2.281673        -2.159235        -0.560617
 H         5.201815        -0.843168         0.056578
 H         5.138907         1.040239         0.384005
 H         2.715631        -0.902956         2.766299
 H         3.112450         0.756709         3.313413
 H         2.131648         1.729743         1.053377
