19
Iteration:  1276charge 0 multiplicity 1
 C        -0.061802        -0.058542        -0.045382
 C         1.406219         0.003419         0.116970
 C         2.221098        -1.279950         0.109715
 C         3.232663        -0.154679         0.078867
 C         4.618461        -0.086722         0.502775
 O         4.462478        -0.112632         1.992691
 C         3.033671         0.031586         2.433171
 C         2.352291         0.682666         1.135132
 O         2.357145         0.526163        -0.936438
 H        -0.307241        -0.855317         0.675914
 H        -0.686878         0.853722         0.345804
 H        -0.341242        -0.336415        -1.068087
 H         2.227016        -1.917068         1.033057
 H         2.331000        -1.779825        -0.874620
 H         5.308057        -0.890809         0.302458
 H         5.152671         0.882976         0.300889
 H         2.606304        -0.981707         2.930523
 H         2.879434         0.828478         3.206208
 H         2.511948         1.765726         0.823254
