19
Iteration:  3373
 C        -0.065315         0.056337        -0.099631
 C         1.356613        -0.133428         0.223168
 C         2.160716        -1.399404         0.097951
 C         3.186620        -0.243621         0.019033
 C         4.539863        -0.157126         0.520718
 O         4.464964         0.093520         1.980322
 C         3.146849         0.117151         2.409832
 C         2.415310         0.557163         1.240775
 O         2.402670         0.570238        -0.934606
 H        -0.802033        -0.498832         0.441686
 H        -0.341404         1.148441        -0.105901
 H        -0.099929        -0.353247        -1.112396
 H         2.254246        -1.913663         1.055860
 H         2.152774        -2.103242        -0.796415
 H         5.115201        -1.010747         0.266600
 H         5.202450         0.720016         0.229800
 H         2.638867        -0.738094         2.621295
 H         3.071666         0.793781         3.257019
 H         2.465278         1.613272         1.024674
