19
Iteration:  1697charge 0 multiplicity 1
 C        -0.001257         0.054282        -0.010535
 C         1.432584        -0.103809         0.168361
 C         2.367627        -1.288511         0.112214
 C         3.189067        -0.047786         0.091896
 C         4.608326        -0.017102         0.522804
 O         4.416517        -0.137036         1.937331
 C         2.965220         0.048602         2.478455
 C         2.320664         0.619303         1.186286
 O         2.332747         0.432495        -1.053570
 H        -0.557822        -0.619034         0.794130
 H        -0.437261         1.062414        -0.009286
 H        -0.436872        -0.246495        -0.985325
 H         2.506633        -1.863934         1.029329
 H         2.454839        -1.828991        -0.830303
 H         5.068832        -1.031414         0.193994
 H         5.229403         0.831184         0.358008
 H         2.565252        -0.860395         2.811626
 H         3.092103         0.740585         3.348602
 H         2.363910         1.744280         1.102167
