19
Iteration:    61
 C        -0.050058         0.247418        -0.137819
 C         1.364207        -0.162415         0.102517
 C         2.231753        -1.493370         0.105817
 C         3.211438        -0.145472         0.095633
 C         4.688047         0.044031         0.541357
 O         4.472885         0.231650         1.979928
 C         3.072694        -0.107628         2.407096
 C         2.332106         0.412851         1.239357
 O         2.294477         0.435498        -0.916519
 H        -0.731324        -0.205178         0.724801
 H        -0.148046         1.390688        -0.096504
 H        -0.458674        -0.144114        -1.131992
 H         2.137641        -2.261417         0.917822
 H         2.358686        -1.952186        -0.903557
 H         5.381109        -0.840457         0.349500
 H         5.319030         0.801469         0.048723
 H         2.916048        -1.167865         2.726375
 H         2.903261         0.456017         3.336636
 H         2.265843         1.546668         1.319386
