19
Iteration:  3461charge 0 multiplicity 1
 C        -0.146550         0.090861        -0.027437
 C         1.448584        -0.061058         0.086218
 C         2.239271        -1.460585         0.109178
 C         3.178540        -0.194802         0.097918
 C         4.637704         0.001999         0.548614
 O         4.394647        -0.143275         1.964300
 C         3.084967         0.249106         2.465571
 C         2.457068         0.640389         1.139723
 O         2.345223         0.385640        -0.967525
 H        -0.683571        -0.810258         0.130084
 H        -0.421950         0.925104         0.674894
 H        -0.453927         0.375555        -0.978634
 H         2.432097        -2.139814         0.987062
 H         2.092738        -1.886291        -0.925561
 H         5.366562        -0.749547         0.245272
 H         5.127692         1.059579         0.350336
 H         2.647547        -0.694251         2.936377
 H         3.376674         0.998741         3.250054
 H         2.307476         1.681080         0.894581
