19
Iteration:  3939charge 0 multiplicity 1
 C        -0.035713         0.051241        -0.093825
 C         1.364960        -0.068778         0.262984
 C         2.204925        -1.337764         0.072671
 C         3.154313        -0.125862         0.048629
 C         4.637024        -0.039897         0.566818
 O         4.524167        -0.029737         2.003722
 C         3.077392        -0.028951         2.397830
 C         2.382055         0.525718         1.150233
 O         2.346444         0.589519        -0.940794
 H        -0.020574         0.071911        -1.170664
 H        -0.673669        -0.849153         0.077940
 H        -0.655965         0.905251         0.267622
 H         2.233116        -2.059234         0.906769
 H         2.065020        -1.861190        -0.847665
 H         5.125729        -1.002372         0.199091
 H         5.224215         0.849722         0.323373
 H         2.621786        -1.080446         2.593035
 H         2.872049         0.568869         3.330606
 H         2.290268         1.636160         1.006444
