19
Iteration:  4881charge 0 multiplicity 1
 C        -0.039193         0.102949        -0.081354
 C         1.458468        -0.133886         0.099770
 C         2.274032        -1.340031        -0.158933
 C         3.163828        -0.034825         0.109502
 C         4.529635         0.049875         0.585999
 O         4.493150         0.018450         1.986702
 C         3.129635        -0.263239         2.407115
 C         2.269585         0.424406         1.266059
 O         2.282302         0.680496        -0.801912
 H        -0.028840         1.113699         0.070512
 H        -0.257070        -0.099427        -1.110430
 H        -0.529011        -0.558912         0.613114
 H         2.390086        -2.093632         0.705443
 H         2.435733        -1.786813        -1.139750
 H         4.871537        -0.849500         0.159522
 H         5.079272         0.867698         0.233072
 H         3.066490        -1.388782         2.521162
 H         3.189109         0.282855         3.365834
 H         2.362814         1.514520         1.445018
