19
Iteration:   115charge 0 multiplicity 1
 C        -0.144114        -0.079086        -0.101345
 C         1.373709        -0.051577         0.012010
 C         2.182224        -1.285147        -0.048160
 C         3.224082        -0.185573         0.141610
 C         4.737075        -0.158930         0.615208
 O         4.526306         0.042722         2.016349
 C         3.116774         0.120270         2.459981
 C         2.320372         0.489730         1.206881
 O         2.279178         0.616877        -0.913137
 H        -0.507975        -0.712550         0.832947
 H        -0.440532         1.034612        -0.070622
 H        -0.382202        -0.695790        -1.038559
 H         2.069882        -1.839971         0.950819
 H         2.161521        -1.834166        -1.025185
 H         5.293122        -1.192702         0.455089
 H         5.303635         0.712979         0.201597
 H         2.874812        -0.919534         2.818036
 H         3.097135         0.907146         3.231691
 H         2.346487         1.636721         1.111147
