19
Iteration:  4239charge 0 multiplicity 1
 C        -0.128935         0.116717        -0.103503
 C         1.403547        -0.147001         0.049941
 C         2.360352        -1.332504        -0.045529
 C         3.212484        -0.070435         0.125501
 C         4.696078         0.025725         0.584600
 O         4.492555        -0.100289         2.047197
 C         3.034640        -0.137092         2.391385
 C         2.356523         0.472421         1.210091
 O         2.201141         0.689913        -0.874894
 H        -0.495864         0.642698         0.795238
 H        -0.459348         0.678016        -1.011983
 H        -0.658579        -0.989553        -0.195465
 H         2.279936        -1.986016         0.907649
 H         2.439663        -1.810319        -0.982201
 H         5.269058        -0.786929         0.076416
 H         5.370966         0.977218         0.338304
 H         2.782166        -1.217567         2.604129
 H         3.091655         0.183888         3.390624
 H         2.486301         1.584861         1.325747
