19
Iteration:  1908charge 0 multiplicity 1
 C        -0.114649         0.121701        -0.067014
 C         1.380095        -0.096131         0.058156
 C         2.233768        -1.410893         0.052483
 C         3.198271        -0.197460         0.096552
 C         4.631931        -0.150899         0.535660
 O         4.487830         0.231145         1.973311
 C         3.062382         0.007629         2.450261
 C         2.342631         0.465876         1.167770
 O         2.359986         0.515797        -0.884791
 H        -0.592917        -0.782682         0.281504
 H        -0.381390         1.057854         0.528559
 H        -0.446382         0.436140        -1.095811
 H         2.130800        -1.995587         0.988620
 H         2.161582        -2.046949        -0.833435
 H         5.110504        -1.197141         0.708834
 H         5.249691         0.544439        -0.057212
 H         3.167730        -1.046598         2.665154
 H         3.162042         0.550029         3.389453
 H         2.484216         1.499975         1.032969
