19
Iteration:  1147charge 0 multiplicity 1
 C        -0.062186        -0.003854        -0.110846
 C         1.384709        -0.059813         0.148005
 C         2.281036        -1.294995         0.118263
 C         3.141402         0.001771         0.137769
 C         4.547536        -0.120678         0.505094
 O         4.523469        -0.038982         1.970008
 C         3.087565        -0.066604         2.463907
 C         2.284714         0.630076         1.202066
 O         2.380947         0.542381        -0.998826
 H        -0.585710        -0.285823         0.694220
 H        -0.431762         1.025881        -0.470925
 H        -0.239274        -0.725514        -0.858462
 H         2.372851        -1.966785         1.010098
 H         2.409863        -2.063858        -0.629785
 H         5.013414        -1.085558         0.400261
 H         5.252686         0.612288         0.103163
 H         2.806284        -1.015450         2.639001
 H         2.998249         0.516522         3.366198
 H         2.380857         1.749698         1.187026
