19
Iteration:   194
 C        -0.089473         0.086108        -0.057611
 C         1.424433        -0.048879         0.107759
 C         2.396132        -1.299312         0.279384
 C         3.208973        -0.063168         0.082793
 C         4.578774         0.255714         0.579715
 O         4.386838        -0.401509         1.855039
 C         3.054082         0.062901         2.434707
 C         2.370289         0.623611         1.144694
 O         2.318129         0.384647        -1.043349
 H        -0.467254        -0.525434         0.926368
 H        -0.458294         1.072079        -0.167373
 H        -0.317226        -0.443399        -0.951004
 H         2.185840        -1.752510         1.272899
 H         2.560457        -2.138536        -0.383705
 H         5.378941        -0.386946         0.124435
 H         4.779031         1.387909         0.632429
 H         2.586720        -0.904485         2.814824
 H         3.151134         0.681328         3.308493
 H         2.426185         1.701350         1.117881
