19
Iteration:  1868charge 0 multiplicity 1
 C        -0.030887         0.188937         0.027393
 C         1.410680        -0.152308         0.068106
 C         2.207343        -1.413488         0.043322
 C         3.214182        -0.191703         0.072197
 C         4.637239        -0.099442         0.595548
 O         4.476543         0.201287         2.041384
 C         3.096539         0.011405         2.423934
 C         2.335864         0.492241         1.155769
 O         2.288707         0.436407        -1.013804
 H        -0.591080        -0.661300         0.376750
 H        -0.179806         1.084733         0.725198
 H        -0.393689         0.409799        -1.004734
 H         2.418620        -2.050179         0.930177
 H         2.278204        -1.871961        -0.969447
 H         4.907505        -1.053057         0.308551
 H         5.340586         0.668554         0.293933
 H         2.700277        -1.025752         2.398369
 H         2.934829         0.496409         3.394264
 H         2.314122         1.614558         1.021817
