19
Iteration:  4726charge 0 multiplicity 1
 C        -0.044380        -0.002196        -0.069133
 C         1.383162        -0.138598         0.201054
 C         2.359513        -1.263880        -0.008274
 C         3.238478         0.080552        -0.006668
 C         4.639368         0.148801         0.601126
 O         4.408206        -0.382454         1.911666
 C         3.068548        -0.078878         2.464253
 C         2.328512         0.462238         1.229235
 O         2.248638         0.713906        -0.957137
 H        -0.287316         1.028189         0.011598
 H        -0.125874        -0.487857        -1.026606
 H        -0.620482        -0.382890         0.794520
 H         2.441702        -1.983023         0.921204
 H         2.207911        -1.879402        -0.957791
 H         5.384763        -0.448511         0.219024
 H         5.008114         1.136538         0.747250
 H         2.737744        -1.083466         3.011239
 H         3.282415         0.580339         3.279916
 H         2.203055         1.555479         1.332320
