19
Iteration:  4046
 C        -0.054071         0.165335        -0.055470
 C         1.419930        -0.178560         0.056166
 C         2.309866        -1.400907         0.113716
 C         3.143853        -0.088693         0.079454
 C         4.627794         0.038172         0.532454
 O         4.493029        -0.099112         1.972092
 C         3.022099        -0.050188         2.404722
 C         2.301904         0.498187         1.246997
 O         2.325116         0.597131        -0.972049
 H        -0.405805        -0.099026        -0.998769
 H        -0.376966        -0.449818         0.761957
 H        -0.237369         1.259198         0.182778
 H         2.325459        -1.782775         1.197542
 H         2.415697        -2.082386        -0.714087
 H         5.292569        -0.814219         0.258266
 H         5.218972         0.942071         0.200757
 H         2.778446        -1.095759         2.655500
 H         2.823641         0.616202         3.325943
 H         2.241982         1.575384         1.140183
