19
Iteration:  1066
 C        -0.060287         0.248427        -0.033070
 C         1.356160        -0.191083         0.160484
 C         2.265481        -1.431227         0.003893
 C         3.225741        -0.155463         0.010592
 C         4.588630        -0.075452         0.564614
 O         4.498391         0.215818         2.041118
 C         3.079753        -0.067330         2.358376
 C         2.337660         0.418053         1.212657
 O         2.353995         0.453248        -0.928181
 H        -0.912445        -0.399831         0.408527
 H        -0.208951         1.172194         0.406440
 H        -0.334626         0.394614        -1.119481
 H         2.216413        -2.019800         0.921249
 H         2.258766        -1.781899        -1.009662
 H         5.212419        -0.946190         0.571592
 H         5.139109         0.817523         0.246131
 H         2.814859        -1.055121         2.548073
 H         2.803727         0.506576         3.230498
 H         2.284496         1.494832         1.212182
