19
Iteration:  3081charge 0 multiplicity 1
 C        -0.121756         0.083440        -0.207737
 C         1.387184        -0.104585         0.238846
 C         2.223122        -1.400691         0.159815
 C         3.130552        -0.107410         0.142205
 C         4.661848        -0.098043         0.528133
 O         4.540072        -0.044487         1.993745
 C         3.149414         0.041974         2.317254
 C         2.371736         0.547732         1.185497
 O         2.293665         0.585469        -0.889556
 H        -0.809807         0.231462         0.595438
 H        -0.102116         0.934704        -0.897138
 H        -0.560027        -0.652015        -0.807677
 H         2.272916        -2.114448         1.036420
 H         2.013687        -2.037375        -0.781502
 H         5.340842        -0.972286         0.193421
 H         5.041640         0.881820         0.312909
 H         2.770603        -0.927282         2.675873
 H         3.096212         0.702344         3.224607
 H         2.399040         1.589377         0.971694
