19
Iteration:  1230
 C        -0.169503         0.100292         0.010382
 C         1.393688        -0.116739         0.070239
 C         2.451984        -1.381243         0.154767
 C         3.252492         0.005065         0.081113
 C         4.632894         0.061272         0.590869
 O         4.414967        -0.337948         1.954112
 C         3.008295         0.170732         2.358489
 C         2.316971         0.553536         1.159729
 O         2.322029         0.473874        -1.016692
 H        -0.522524        -0.447729         0.995234
 H        -0.347592         1.165573         0.162829
 H        -0.556629        -0.300949        -0.933935
 H         2.553027        -1.903141         1.140610
 H         2.486306        -1.966454        -0.767831
 H         5.328895        -0.699829         0.152292
 H         5.102680         1.082124         0.539386
 H         2.612339        -0.727879         3.065079
 H         3.080066         1.082286         3.021795
 H         2.252488         1.652054         1.062027
