19
Iteration:  4951charge 0 multiplicity 1
 C        -0.055672         0.034453        -0.026903
 C         1.399209        -0.034824         0.142227
 C         2.378187        -1.306635        -0.073628
 C         3.191354         0.002652         0.054858
 C         4.624903         0.153715         0.559886
 O         4.492644        -0.221864         1.948139
 C         2.989232        -0.257224         2.440420
 C         2.322008         0.422823         1.244553
 O         2.290223         0.744705        -0.868256
 H        -0.131068         0.871542        -0.796663
 H        -0.339166        -0.929365        -0.476132
 H        -0.500603         0.109784         0.976405
 H         2.490134        -2.022635         0.739681
 H         2.153719        -1.886038        -0.999032
 H         5.250708        -0.674712         0.162313
 H         5.026142         1.108699         0.357407
 H         2.712809        -1.306135         2.664798
 H         2.871306         0.485286         3.261378
 H         2.174986         1.541702         1.289013
