19
Iteration:  4316charge 0 multiplicity 1
 C        -0.079775         0.105273        -0.060768
 C         1.460357        -0.075932         0.064707
 C         2.246077        -1.335899        -0.208301
 C         3.143855        -0.039517         0.111658
 C         4.611424         0.036792         0.582812
 O         4.491004        -0.049446         2.061848
 C         3.118869        -0.218508         2.512807
 C         2.357654         0.415233         1.248211
 O         2.254545         0.663383        -0.905029
 H        -0.241583         1.065300        -0.477707
 H        -0.385510        -0.564765        -0.889147
 H        -0.754314        -0.111998         0.836396
 H         2.362049        -1.972915         0.703861
 H         2.532064        -1.710803        -1.142707
 H         5.183324        -0.860469         0.316230
 H         5.102173         1.061527         0.305077
 H         2.926753        -1.290672         2.564855
 H         3.070508         0.254775         3.437535
 H         2.395769         1.501683         1.379405
