19
Iteration:   986
 C        -0.032760        -0.030796        -0.119591
 C         1.428759        -0.065488         0.121797
 C         2.320021        -1.281338         0.072102
 C         3.188843        -0.066992         0.152611
 C         4.637410         0.028720         0.489797
 O         4.377837        -0.288444         1.934800
 C         3.096200         0.124464         2.479258
 C         2.356817         0.560006         1.186994
 O         2.273651         0.549031        -0.876123
 H        -0.546245        -0.081258         0.880065
 H        -0.301332         0.945842        -0.691073
 H        -0.367128        -0.856931        -0.716608
 H         2.474218        -2.017827         0.761225
 H         2.174341        -1.767261        -0.880702
 H         5.297325        -0.759857         0.084609
 H         5.180603         0.963652         0.409718
 H         2.565778        -0.662742         2.942340
 H         3.216329         1.021138         3.131049
 H         2.359951         1.654151         1.099952
