19
Iteration:  4576charge 0 multiplicity 1
 C        -0.179297         0.115348        -0.089503
 C         1.363228        -0.104057         0.097544
 C         2.268843        -1.354809        -0.142140
 C         3.198398        -0.132217         0.189433
 C         4.680247         0.045396         0.565395
 O         4.511293         0.038071         2.004831
 C         3.079425        -0.285725         2.364594
 C         2.364897         0.456162         1.318029
 O         2.339379         0.694301        -0.840780
 H        -0.489697         1.101931        -0.337478
 H        -0.527235        -0.467205        -0.960890
 H        -0.716825        -0.283637         0.868727
 H         2.307456        -2.217969         0.486007
 H         2.179337        -1.610693        -1.084343
 H         5.312973        -0.800725         0.080298
 H         5.134108         1.089642         0.462767
 H         3.030914        -1.350612         2.302665
 H         2.882516         0.231304         3.362045
 H         2.394742         1.555442         1.116892
