19
Iteration:  3929
 C        -0.051680         0.046463        -0.127684
 C         1.425534        -0.063131         0.188861
 C         2.173454        -1.384490         0.005570
 C         3.223859        -0.186660         0.032891
 C         4.602688        -0.016612         0.561519
 O         4.447616        -0.037660         1.986191
 C         3.083729        -0.027036         2.449432
 C         2.401825         0.601723         1.233469
 O         2.314070         0.582524        -0.913286
 H        -0.230643        -0.023882        -1.210780
 H        -0.467415        -0.883266         0.426080
 H        -0.461234         1.006209         0.257630
 H         2.188589        -1.976991         0.898255
 H         1.893565        -1.915364        -0.879170
 H         5.372633        -0.786841         0.337508
 H         5.061592         0.889020         0.173360
 H         2.798846        -1.184741         2.802603
 H         3.172716         0.641406         3.350367
 H         2.595163         1.715678         1.102576
