19
Iteration:  2697charge 0 multiplicity 1
 C        -0.051670         0.230283         0.035446
 C         1.352253        -0.105483         0.125767
 C         2.266950        -1.412254         0.061261
 C         3.197209        -0.158989         0.051784
 C         4.658439        -0.162381         0.662370
 O         4.520747         0.132974         2.067702
 C         3.023377        -0.024234         2.310182
 C         2.388808         0.563384         1.102798
 O         2.250036         0.437340        -1.016185
 H        -0.655651        -0.449769         0.722746
 H        -0.331801         1.207921         0.260636
 H        -0.503585         0.016348        -1.007943
 H         2.468785        -2.195542         0.850992
 H         2.251664        -1.727958        -0.997946
 H         5.350640        -1.086047         0.600024
 H         5.143980         0.776548         0.266861
 H         2.960703        -1.200586         2.436733
 H         2.967132         0.548053         3.262957
 H         2.414005         1.664097         1.136717
