19
Iteration:  4076charge 0 multiplicity 1
 C        -0.091308         0.076469        -0.133387
 C         1.410414        -0.067468         0.202211
 C         2.337916        -1.293256        -0.005708
 C         3.158529        -0.083212         0.082519
 C         4.623961         0.024454         0.529152
 O         4.496571        -0.193633         2.004014
 C         3.007577         0.012304         2.419033
 C         2.386963         0.595989         1.267368
 O         2.273077         0.510241        -0.942436
 H        -0.397957        -0.897701        -0.572086
 H        -0.516479         0.012096         0.842151
 H        -0.222606         1.115976        -0.633443
 H         2.540394        -2.082720         0.724421
 H         2.224717        -1.773859        -0.942760
 H         5.282314        -0.768595         0.281612
 H         5.164886         0.947365         0.272948
 H         2.657004        -1.099426         2.698094
 H         3.024974         0.461224         3.419746
 H         2.342303         1.674551         1.143403
