19
Iteration:  2279charge 0 multiplicity 1
 C        -0.057462         0.122110        -0.189690
 C         1.376392        -0.108804         0.114076
 C         2.232739        -1.381266         0.269520
 C         3.191346        -0.148749         0.128463
 C         4.621712         0.172898         0.514082
 O         4.493060        -0.226096         1.920810
 C         3.089822         0.136807         2.400840
 C         2.363873         0.574703         1.215473
 O         2.287487         0.369215        -0.941103
 H        -0.575824        -0.364283         0.632771
 H        -0.068430         1.269101        -0.463999
 H        -0.281586        -0.341138        -1.205485
 H         2.161597        -1.877204         1.273704
 H         2.209345        -2.114114        -0.549560
 H         5.235133        -0.606677         0.172274
 H         5.068013         1.310125         0.562306
 H         2.698352        -0.740930         2.930899
 H         3.149263         0.946977         3.055482
 H         2.516944         1.640479         1.034036
