19
Iteration:  3502
 C        -0.079056         0.014100        -0.028589
 C         1.438751        -0.068187         0.124744
 C         2.333217        -1.404200         0.207714
 C         3.206865        -0.040216        -0.008998
 C         4.665615        -0.101300         0.553874
 O         4.336998        -0.243434         1.962306
 C         3.093518         0.271041         2.382697
 C         2.395476         0.669654         1.192746
 O         2.287457         0.468018        -1.009179
 H        -0.478994        -0.722639         0.662915
 H        -0.461100         0.953280         0.248704
 H        -0.359658        -0.121595        -1.088129
 H         2.275243        -1.961405         1.126972
 H         2.332693        -2.139203        -0.668226
 H         5.186132        -0.971904         0.271615
 H         5.233014         0.775778         0.423975
 H         2.500205        -0.564254         2.966338
 H         3.129042         1.102919         3.080136
 H         2.422152         1.797668         1.180554
