19
Iteration:  3998
 C        -0.153236         0.071993        -0.076115
 C         1.375021        -0.126251         0.218737
 C         2.179512        -1.422154        -0.018890
 C         3.228475        -0.179038         0.018000
 C         4.657338        -0.014365         0.563703
 O         4.531660        -0.013415         2.046011
 C         3.043954         0.045582         2.419932
 C         2.391607         0.513370         1.111431
 O         2.372346         0.573474        -0.873682
 H        -0.080182         0.619676        -1.087550
 H        -0.682311        -0.872189         0.098173
 H        -0.450881         0.886338         0.576701
 H         2.184503        -2.065920         0.819172
 H         1.867130        -1.773179        -1.016350
 H         5.348463        -0.774552         0.228763
 H         5.096763         0.967840         0.335589
 H         2.631112        -1.072642         2.739375
 H         3.134355         0.695119         3.279466
 H         2.245127         1.596197         0.984995
