19
Iteration:  3882
 C        -0.095030         0.140948        -0.054927
 C         1.347078        -0.201084         0.207444
 C         2.324116        -1.371130         0.048692
 C         3.169427        -0.053837         0.036603
 C         4.674986         0.047863         0.548212
 O         4.445366        -0.155403         1.987989
 C         3.093086         0.001744         2.410826
 C         2.293022         0.482827         1.263695
 O         2.365675         0.571562        -1.005515
 H        -0.560218        -0.511744        -0.783282
 H        -0.604809         0.341675         0.892848
 H        -0.008645         1.129786        -0.663809
 H         2.436403        -2.142944         0.898296
 H         2.322489        -1.782888        -0.975043
 H         5.442896        -0.720137         0.175296
 H         5.165935         1.047591         0.495920
 H         2.608998        -1.057272         2.706633
 H         2.984658         0.763896         3.292712
 H         1.980911         1.537832         1.266224
