19
Iteration:  1070
 C        -0.074597         0.245426        -0.017679
 C         1.336450        -0.181238         0.122638
 C         2.256881        -1.440565        -0.011105
 C         3.228354        -0.158949         0.034238
 C         4.631617        -0.073406         0.592488
 O         4.492378         0.225958         2.030944
 C         3.077817        -0.040638         2.397091
 C         2.356644         0.380302         1.211593
 O         2.329116         0.461377        -0.970957
 H        -0.787455        -0.363814         0.363379
 H        -0.247779         1.284430         0.491423
 H        -0.279630         0.371148        -1.060427
 H         2.215165        -2.135191         0.946728
 H         2.209663        -1.858725        -1.077573
 H         5.241063        -1.021069         0.508502
 H         5.182379         0.849487         0.373290
 H         2.798940        -1.141513         2.535080
 H         2.895982         0.545668         3.304914
 H         2.297159         1.541157         1.254417
