19
Iteration:  1385
 C        -0.114621         0.129598         0.009620
 C         1.467240        -0.095805         0.074700
 C         2.266751        -1.417592         0.055737
 C         3.186507        -0.177061         0.113383
 C         4.539069        -0.032378         0.463356
 O         4.442709         0.151713         2.042931
 C         3.074027        -0.077698         2.418164
 C         2.323489         0.550736         1.196389
 O         2.439563         0.460193        -0.951734
 H        -0.527211        -0.251291         0.954042
 H        -0.148610         1.227509        -0.238440
 H        -0.562323        -0.366417        -0.851477
 H         2.018715        -2.210929         0.820876
 H         2.237093        -1.719571        -1.001637
 H         5.097154        -0.941795         0.249024
 H         5.231446         0.805733         0.170075
 H         2.800923        -1.137453         2.497024
 H         2.919593         0.412337         3.398766
 H         2.336451         1.676845         1.121240
