19
Iteration:  2636
 C        -0.164267         0.047946        -0.179095
 C         1.365391        -0.111226         0.112530
 C         2.142766        -1.332430         0.061720
 C         3.172967        -0.096574         0.106251
 C         4.671181        -0.054326         0.558410
 O         4.557842        -0.104825         2.010967
 C         3.132016         0.063107         2.461286
 C         2.418697         0.607231         1.221283
 O         2.320722         0.484364        -0.887280
 H        -0.721974         0.206745         0.761605
 H        -0.104350         0.906031        -0.909060
 H        -0.601382        -0.803574        -0.769222
 H         2.048626        -2.054285         0.884976
 H         2.164433        -1.825184        -0.898946
 H         5.398518        -0.782032         0.167247
 H         5.108606         0.908763         0.158017
 H         2.688758        -0.852056         2.759401
 H         3.154885         0.857813         3.303464
 H         2.370192         1.714537         1.014783
