19
Iteration:   747
 C        -0.032679        -0.057730         0.025420
 C         1.473928        -0.026627         0.034282
 C         2.293156        -1.259595         0.119865
 C         3.230795        -0.049215         0.058485
 C         4.616176         0.044742         0.597281
 O         4.416492        -0.256135         1.945850
 C         2.987758         0.029820         2.454424
 C         2.389020         0.647998         1.176651
 O         2.295161         0.508233        -1.041877
 H        -0.310385        -0.577313         1.055110
 H        -0.598001         0.877605         0.133133
 H        -0.455177        -0.657056        -0.742262
 H         2.299841        -1.854846         1.050166
 H         2.392594        -1.955661        -0.783418
 H         5.084521        -0.799089         0.201608
 H         5.049551         1.015028         0.384637
 H         2.482348        -0.871671         2.918427
 H         3.161074         0.918213         3.181146
 H         2.434934         1.753721         1.083445
