19
Iteration:   842charge 0 multiplicity 1
 C        -0.118729         0.146289        -0.238318
 C         1.328700        -0.110309         0.235779
 C         2.158670        -1.393091         0.012287
 C         3.186836        -0.239363         0.068937
 C         4.673483        -0.081117         0.496448
 O         4.475201         0.352132         1.992366
 C         3.199256        -0.157580         2.421092
 C         2.335599         0.337789         1.248373
 O         2.361478         0.567219        -0.820880
 H        -0.831896        -0.304171         0.347125
 H        -0.390637         1.360844        -0.073114
 H        -0.257512        -0.207250        -1.308417
 H         2.054613        -2.197190         0.740293
 H         2.188777        -1.890711        -0.966826
 H         5.166294        -1.137987         0.669511
 H         5.259464         0.763294         0.078251
 H         3.150652        -1.200769         2.618646
 H         3.223765         0.440032         3.320727
 H         2.308981         1.483229         1.452583
