19
Iteration:  4736
 C        -0.103843        -0.016057        -0.051890
 C         1.435182        -0.138431         0.212612
 C         2.354347        -1.268657        -0.050693
 C         3.160453         0.013183         0.051220
 C         4.628915         0.133746         0.622097
 O         4.461720        -0.406820         1.875198
 C         3.063728        -0.042186         2.434582
 C         2.351517         0.568513         1.258155
 O         2.315841         0.683122        -0.896616
 H        -0.362063         1.033671         0.009017
 H        -0.382342        -0.273772        -1.080909
 H        -0.722406        -0.736169         0.480883
 H         2.591401        -1.931153         0.857197
 H         2.304705        -1.752116        -1.090938
 H         5.425393        -0.361206         0.176891
 H         4.815031         1.198401         0.567071
 H         2.420815        -0.997819         2.723003
 H         3.157378         0.626618         3.267043
 H         2.055795         1.603004         1.273165
