19
Iteration:  4391
 C        -0.159454         0.024869        -0.085059
 C         1.436237        -0.063890         0.173740
 C         2.345246        -1.309039        -0.072365
 C         3.195447        -0.001237         0.094533
 C         4.647122         0.160233         0.607890
 O         4.474751        -0.281418         1.956414
 C         3.062394        -0.175902         2.434401
 C         2.352906         0.500522         1.230399
 O         2.333925         0.667150        -0.902515
 H        -0.464399         0.860813        -0.686038
 H        -0.297975        -0.849888        -0.667285
 H        -0.835412         0.110295         0.797401
 H         2.040133        -2.192432         0.668876
 H         2.120655        -1.494832        -1.100588
 H         5.428612        -0.519757         0.218988
 H         4.984521         1.209647         0.614333
 H         2.650981        -1.179918         2.609050
 H         3.051506         0.504323         3.307936
 H         2.255145         1.589243         1.326952
