19
Iteration:  3530charge 0 multiplicity 1
 C        -0.105954        -0.035872        -0.049092
 C         1.427732        -0.033126         0.199617
 C         2.239355        -1.333889         0.249490
 C         3.184896        -0.049734         0.071378
 C         4.657561        -0.030810         0.526360
 O         4.476666        -0.322706         1.966173
 C         3.028250         0.215050         2.379639
 C         2.371460         0.737714         1.149609
 O         2.344036         0.432964        -1.044175
 H        -0.785027        -0.292772         0.822110
 H        -0.201546         0.997057        -0.463891
 H        -0.272700        -0.812811        -0.902881
 H         2.216871        -2.006040         1.155149
 H         2.174165        -1.857452        -0.681275
 H         5.402024        -0.760096         0.012475
 H         5.087792         1.049546         0.467112
 H         2.460367        -0.647667         2.699773
 H         3.115012         0.951432         3.216785
 H         2.458636         1.811688         1.148486
