19
Iteration:   221charge 0 multiplicity 1
 C        -0.052349        -0.019138        -0.082074
 C         1.371780        -0.152766         0.212429
 C         2.291660        -1.328371         0.037638
 C         3.194445        -0.088505         0.057324
 C         4.643609         0.073464         0.627022
 O         4.487122        -0.296575         2.006108
 C         3.098530         0.200858         2.390375
 C         2.349343         0.609596         1.157121
 O         2.253610         0.510006        -0.961369
 H        -0.608506        -0.208091         0.807198
 H        -0.251795         1.091946        -0.386585
 H        -0.355645        -0.707100        -0.949288
 H         2.186653        -2.046280         0.874498
 H         2.254904        -1.784968        -0.964154
 H         5.409671        -0.602774         0.217124
 H         5.068029         1.091522         0.450865
 H         2.683227        -0.670271         2.838353
 H         3.201405         0.978676         3.193503
 H         2.220303         1.728235         0.959346
