19
Iteration:   256charge 0 multiplicity 1
 C        -0.086493        -0.026950        -0.096741
 C         1.393681        -0.082861         0.063011
 C         2.285025        -1.276023        -0.023424
 C         3.197997        -0.084872         0.066625
 C         4.627552        -0.183570         0.543099
 O         4.465642         0.060987         1.969362
 C         3.139621         0.099978         2.515788
 C         2.297184         0.466401         1.256368
 O         2.336008         0.565597        -0.924549
 H        -0.436158        -0.359510         0.815661
 H        -0.601956         1.048797        -0.217145
 H        -0.619764        -0.799134        -0.764380
 H         2.179845        -2.036140         0.889298
 H         2.372070        -1.837125        -0.968715
 H         4.834197        -1.326335         0.497804
 H         5.388080         0.535245         0.239986
 H         2.923967        -0.898189         3.000648
 H         3.123168         0.916046         3.294788
 H         2.183655         1.633389         1.146767
