19
Iteration:   334charge 0 multiplicity 1
 C        -0.070842         0.305180        -0.064341
 C         1.367561        -0.264148         0.056323
 C         2.312241        -1.499449        -0.043885
 C         3.096952        -0.198578         0.187982
 C         4.547114         0.072376         0.528446
 O         4.518947         0.129040         1.976369
 C         3.166809         0.050240         2.441826
 C         2.278504         0.437865         1.206143
 O         2.374777         0.400573        -0.854845
 H        -0.907082        -0.348717         0.363543
 H        -0.115238         1.424361         0.204349
 H        -0.243285         0.319203        -1.171272
 H         2.299721        -2.249040         0.880705
 H         2.321532        -2.115782        -1.016725
 H         5.361168        -0.757316         0.278555
 H         4.870285         1.017891         0.081921
 H         2.884261        -1.013215         2.796022
 H         3.038546         0.673536         3.297953
 H         2.237311         1.568059         1.147747
