19
Iteration:  4883
 C        -0.034841         0.086809        -0.095123
 C         1.455070        -0.156310         0.092865
 C         2.266752        -1.330104        -0.141801
 C         3.160671        -0.037269         0.112082
 C         4.540174         0.056882         0.576092
 O         4.484341         0.010264         1.988693
 C         3.147794        -0.267673         2.412894
 C         2.264204         0.417633         1.250948
 O         2.287715         0.703164        -0.802613
 H        -0.112885         1.202846         0.079835
 H        -0.342634        -0.116868        -1.120491
 H        -0.555927        -0.463659         0.694684
 H         2.431478        -2.024971         0.719221
 H         2.421446        -1.831250        -1.162184
 H         4.914581        -0.906263         0.187386
 H         5.106502         0.846965         0.246704
 H         3.082347        -1.391311         2.547821
 H         3.188882         0.319333         3.425466
 H         2.335403         1.557406         1.465312
