19
Iteration:  1673
 C        -0.086411         0.080037        -0.101611
 C         1.418250        -0.138022         0.173339
 C         2.196689        -1.399600         0.179215
 C         3.198706        -0.125326         0.101585
 C         4.630687        -0.019113         0.520715
 O         4.510088        -0.016798         1.984826
 C         3.057470         0.014320         2.368558
 C         2.344413         0.602872         1.156619
 O         2.361124         0.505009        -0.917260
 H        -0.672755        -0.761142         0.257474
 H        -0.643213         1.051373         0.089070
 H        -0.212003         0.082434        -1.211914
 H         2.270437        -2.026490         1.049348
 H         2.299531        -1.941899        -0.739068
 H         5.293670        -0.787965         0.189221
 H         4.990403         1.011595         0.308397
 H         2.739938        -0.956981         2.524792
 H         2.999285         0.515630         3.312251
 H         2.306840         1.658813         0.915800
