19
Iteration:   288
 C        -0.134062         0.087301        -0.119760
 C         1.406124        -0.074325         0.196102
 C         2.174541        -1.356032         0.063692
 C         3.234918        -0.231138         0.058733
 C         4.641315        -0.103082         0.591288
 O         4.461209         0.285679         2.026355
 C         3.125935        -0.089705         2.341336
 C         2.400768         0.518038         1.159310
 O         2.319545         0.482114        -0.883148
 H        -0.524776        -0.540818         0.590217
 H        -0.551315         1.214207         0.054280
 H        -0.443249        -0.265231        -1.200922
 H         2.166562        -2.143213         0.897508
 H         2.144978        -1.830524        -0.902882
 H         5.172568        -1.126747         0.439103
 H         5.326287         0.650936         0.185796
 H         2.952048        -1.138351         2.179656
 H         2.873358         0.080087         3.412213
 H         2.622259         1.654277         1.123322
