19
Iteration:  4762charge 0 multiplicity 1
 C        -0.073271        -0.034560        -0.063350
 C         1.434204         0.005148         0.065237
 C         2.348873        -1.259895        -0.016988
 C         3.177421         0.014050         0.134434
 C         4.634715         0.122782         0.545466
 O         4.423547        -0.311312         1.884277
 C         3.087323        -0.123331         2.506233
 C         2.341428         0.501954         1.256047
 O         2.292280         0.639757        -0.885885
 H        -0.599759         0.712359         0.523773
 H        -0.522168         0.135236        -1.068052
 H        -0.317182        -1.077045         0.193410
 H         2.249198        -1.989119         0.839177
 H         2.381214        -1.671578        -0.993187
 H         5.281954        -0.641425         0.031522
 H         5.089755         1.113844         0.505003
 H         2.552843        -0.987460         2.838153
 H         3.237882         0.639244         3.299269
 H         2.210241         1.633260         1.282848
