19
Iteration:  4162charge 0 multiplicity 1
 C        -0.064160         0.072196        -0.069273
 C         1.359994        -0.073631         0.072268
 C         2.418488        -1.368491         0.105215
 C         3.231947         0.018581         0.045701
 C         4.679381         0.115364         0.578328
 O         4.437395        -0.343301         1.973961
 C         3.002380        -0.028656         2.451403
 C         2.364644         0.529071         1.174166
 O         2.220522         0.641154        -0.946194
 H        -0.602599        -0.738100         0.501532
 H        -0.426228         1.087679         0.057608
 H        -0.431919        -0.213318        -1.152873
 H         2.457448        -1.986437         1.010385
 H         2.356771        -1.936097        -0.792603
 H         5.469489        -0.590735         0.272449
 H         5.184874         1.114650         0.402933
 H         2.695887        -1.045548         2.864012
 H         3.020845         0.592870         3.311254
 H         2.258374         1.611757         1.336389
