19
Iteration:   684
 C        -0.035363         0.019222        -0.132753
 C         1.442564        -0.198608         0.098773
 C         2.342385        -1.294234         0.082101
 C         3.197286        -0.027570         0.105026
 C         4.618858         0.051249         0.537789
 O         4.391169        -0.400669         1.956957
 C         3.144167         0.271830         2.467128
 C         2.328993         0.595715         1.201738
 O         2.180673         0.543834        -0.929221
 H        -0.460746        -0.727467         0.718948
 H        -0.312732         1.001833        -0.145725
 H        -0.348765        -0.455327        -1.058634
 H         2.386859        -1.848215         1.011493
 H         2.561609        -2.007938        -0.731191
 H         5.358588        -0.712545         0.313187
 H         5.259007         1.018664         0.409474
 H         2.860669        -0.519715         3.228993
 H         3.397226         1.176180         2.917113
 H         2.096815         1.601456         1.124144
