19
Iteration:  3710
 C        -0.084264         0.162646        -0.113965
 C         1.335728        -0.117025         0.129342
 C         2.301554        -1.381575         0.063185
 C         3.139387        -0.079323         0.057789
 C         4.562544        -0.026069         0.551408
 O         4.510411        -0.061656         2.032469
 C         3.158175        -0.008172         2.497094
 C         2.378145         0.529420         1.154502
 O         2.324211         0.490291        -0.955713
 H        -0.202235         0.735358        -1.029112
 H        -0.653874        -0.840273        -0.243595
 H        -0.784177         0.566357         0.748420
 H         2.418461        -2.047649         0.913516
 H         2.241863        -1.869455        -0.870272
 H         5.194821        -0.891299         0.125913
 H         4.951380         1.053298         0.229896
 H         2.840354        -0.940585         2.862442
 H         3.100731         0.611508         3.364190
 H         2.470683         1.642403         1.151919
