19
Iteration:  3458
 C        -0.118108         0.096776        -0.038536
 C         1.456136        -0.099532         0.109262
 C         2.209490        -1.449352         0.119643
 C         3.211176        -0.203713         0.093627
 C         4.651936         0.023228         0.526928
 O         4.378109        -0.132893         1.935851
 C         3.085235         0.244057         2.497792
 C         2.445290         0.638233         1.127449
 O         2.342660         0.394711        -0.959574
 H        -0.667635        -0.813939         0.215394
 H        -0.414162         0.832151         0.617284
 H        -0.377153         0.500756        -1.044936
 H         2.416240        -2.109893         0.951462
 H         2.005522        -1.952768        -0.897301
 H         5.329849        -0.779055         0.318699
 H         5.059777         1.007931         0.285229
 H         2.589352        -0.765761         3.003093
 H         3.275645         0.962204         3.329368
 H         2.381756         1.762687         0.916377
