19
Iteration:  1452
 C        -0.101343        -0.080687        -0.055238
 C         1.406603        -0.045777         0.123264
 C         2.280644        -1.349151         0.144233
 C         3.216624        -0.068908         0.151393
 C         4.601926        -0.023498         0.544012
 O         4.442210        -0.285263         1.928013
 C         3.056880         0.208454         2.394721
 C         2.304612         0.676596         1.199447
 O         2.401677         0.540567        -0.959079
 H        -0.610512        -0.900173         0.422843
 H        -0.530297         0.983690         0.250067
 H        -0.339187        -0.269169        -1.145923
 H         2.308516        -2.121617         0.934358
 H         2.300661        -1.993551        -0.747016
 H         5.195915        -0.850193         0.170859
 H         5.195189         0.881638         0.158627
 H         2.715748        -0.669151         2.857747
 H         3.192534         1.099948         3.012695
 H         2.304131         1.783940         1.114482
