19
Iteration:   729
 C        -0.106342        -0.128096         0.001121
 C         1.376768        -0.060965         0.148926
 C         2.323461        -1.271583         0.175555
 C         3.205505         0.014245         0.052627
 C         4.710140         0.013851         0.542885
 O         4.369004        -0.412645         1.983186
 C         3.070815         0.176977         2.386637
 C         2.333810         0.664715         1.110921
 O         2.352453         0.599331        -1.016204
 H        -0.436411        -0.770295         0.941070
 H        -0.486041         0.854245        -0.040801
 H        -0.368545        -0.679545        -0.940231
 H         2.296502        -1.867190         1.088754
 H         2.301600        -2.076206        -0.571451
 H         5.533946        -0.585455         0.038334
 H         5.078741         1.108141         0.571548
 H         2.475385        -0.688197         2.785570
 H         3.244735         0.923677         3.106623
 H         2.270063         1.717747         1.071228
