19
Iteration:  4397
 C        -0.191264        -0.004553        -0.117047
 C         1.402185        -0.087904         0.192176
 C         2.347225        -1.334530        -0.037206
 C         3.270793         0.009403         0.120608
 C         4.691740         0.147997         0.607980
 O         4.431644        -0.307811         1.950045
 C         3.024163        -0.151210         2.399316
 C         2.386831         0.530652         1.233654
 O         2.304356         0.689911        -0.882100
 H        -0.457034         1.068933        -0.491199
 H        -0.425489        -0.921176        -0.742817
 H        -0.799873         0.154652         0.775633
 H         2.132381        -2.179422         0.499815
 H         2.293298        -1.461434        -1.159212
 H         5.485911        -0.447775         0.140947
 H         4.928370         1.256678         0.380831
 H         2.767842        -1.179253         2.721837
 H         3.100939         0.477116         3.336481
 H         2.444048         1.633083         1.214402
