19
Iteration:   971charge 0 multiplicity 1
 C        -0.008487         0.002467        -0.001566
 C         1.432335        -0.142869         0.157247
 C         2.403842        -1.381549         0.110405
 C         3.215059         0.044900         0.052035
 C         4.606301         0.042513         0.561615
 O         4.363594        -0.406195         1.928598
 C         3.038710         0.152773         2.398574
 C         2.285431         0.627331         1.219001
 O         2.299348         0.598112        -1.011587
 H        -0.557592         0.019513         0.899629
 H        -0.297523         0.994431        -0.572136
 H        -0.371752        -0.859713        -0.628687
 H         2.284211        -1.964916         1.096132
 H         2.639595        -1.917953        -0.847574
 H         5.236100        -0.747432         0.087003
 H         5.073699         1.074222         0.461996
 H         2.722344        -0.727554         3.140111
 H         3.250455         0.958436         3.111553
 H         2.155821         1.782459         1.158759
