19
Iteration:  3075
 C        -0.070027         0.083525        -0.179580
 C         1.340943        -0.107979         0.171217
 C         2.224930        -1.433736         0.127225
 C         3.172041        -0.109662         0.117352
 C         4.662903        -0.090795         0.501659
 O         4.510544        -0.031309         1.984772
 C         3.143348         0.031445         2.397923
 C         2.357851         0.572012         1.198605
 O         2.290151         0.564923        -0.859714
 H        -0.741789         0.340639         0.683884
 H        -0.190655         1.037016        -0.782507
 H        -0.455760        -0.724679        -0.913576
 H         2.087963        -2.059886         0.999224
 H         2.115669        -2.016248        -0.743800
 H         5.230339        -0.951655         0.261975
 H         5.254862         0.826146         0.163692
 H         2.755806        -0.979577         2.719321
 H         3.346575         0.800871         3.155840
 H         2.228308         1.690416         1.001593
