19
Iteration:  1708
 C        -0.099146         0.046944         0.014098
 C         1.431841        -0.091360         0.072589
 C         2.369152        -1.315383         0.123384
 C         3.246378         0.002534         0.040046
 C         4.671660        -0.053671         0.621258
 O         4.433033        -0.211019         1.988853
 C         2.978670         0.100671         2.404323
 C         2.309847         0.607462         1.164457
 O         2.276759         0.480305        -1.035801
 H        -0.531819        -0.416344         1.038291
 H        -0.305645         1.112979         0.034848
 H        -0.262356        -0.637293        -0.818277
 H         2.433198        -1.953831         1.013588
 H         2.416213        -1.949832        -0.775610
 H         5.400262        -0.835750         0.156330
 H         5.122423         0.873313         0.332970
 H         2.730742        -0.816989         2.813192
 H         3.055089         0.877597         3.214028
 H         2.105601         1.705909         1.006434
