19
Iteration:   815
 C        -0.035421         0.207026        -0.184092
 C         1.361241        -0.126507         0.055704
 C         2.198760        -1.462313        -0.043066
 C         3.118063        -0.245262         0.130461
 C         4.559200        -0.021493         0.578053
 O         4.549690         0.319262         1.956356
 C         3.167904        -0.144518         2.479062
 C         2.295585         0.415141         1.309532
 O         2.352944         0.511550        -0.877195
 H        -0.521081        -0.196082         0.848081
 H        -0.145785         1.203665        -0.073425
 H        -0.553176        -0.199723        -1.062205
 H         2.073345        -2.166121         0.817739
 H         2.314868        -1.855259        -1.079065
 H         5.053119        -0.928041         0.539230
 H         4.979423         0.848828         0.084866
 H         3.119264        -1.330440         2.477368
 H         3.293152         0.258544         3.509379
 H         2.385977         1.455912         1.316472
