19
Iteration:  2881
 C         0.066332         0.063119         0.015419
 C         1.452399        -0.092816         0.162187
 C         2.340787        -1.309332         0.112509
 C         3.170329        -0.015475        -0.014033
 C         4.565282         0.019298         0.542843
 O         4.376739        -0.264218         1.982599
 C         3.032219         0.078294         2.446765
 C         2.320815         0.653665         1.173379
 O         2.316894         0.424085        -1.047321
 H        -0.500639         0.386731         0.953359
 H        -0.099660         0.976094        -0.488552
 H        -0.537340        -0.787352        -0.469346
 H         2.590931        -1.856376         1.092398
 H         2.245168        -1.915802        -0.803331
 H         5.217568        -0.868874         0.178747
 H         5.017862         0.948510         0.380774
 H         2.634390        -0.983158         2.977993
 H         3.011057         0.846696         3.295517
 H         2.367100         1.763832         1.193301
