19
Iteration:   875charge 0 multiplicity 1
 C        -0.057889         0.034386        -0.124773
 C         1.349230        -0.114869         0.079940
 C         2.277545        -1.339764         0.019184
 C         3.140824        -0.119321         0.154907
 C         4.625795        -0.114623         0.519563
 O         4.543516         0.111867         2.021053
 C         3.144258        -0.040225         2.416473
 C         2.307925         0.507926         1.257854
 O         2.291074         0.563914        -0.905480
 H        -0.588645        -0.630401         0.481892
 H        -0.424058         1.172350         0.204572
 H        -0.430706        -0.042980        -1.176703
 H         1.983850        -2.098301         0.723400
 H         2.513701        -1.737704        -0.985041
 H         5.184702        -1.117372         0.352251
 H         5.348915         0.538339         0.022500
 H         2.911375        -1.059655         2.722648
 H         3.000177         0.603629         3.294621
 H         2.121865         1.643063         1.190162
