19
Iteration:   167charge 0 multiplicity 1
 C        -0.054509         0.070389        -0.006144
 C         1.431003        -0.169076         0.187610
 C         2.348624        -1.410632         0.164883
 C         3.189964         0.025660         0.100785
 C         4.648037         0.106230         0.541130
 O         4.388102        -0.288431         1.905650
 C         3.032771         0.130838         2.394029
 C         2.276550         0.597749         1.154617
 O         2.366609         0.468521        -1.006084
 H        -0.486188        -0.476852         0.678733
 H        -0.319949         1.170079         0.044356
 H        -0.306601        -0.261695        -1.060212
 H         2.348295        -2.100355         1.013744
 H         2.376964        -1.974094        -0.800064
 H         5.197300        -0.718924         0.110305
 H         5.106154         1.071113         0.507706
 H         2.696651        -0.703796         2.985665
 H         3.183876         1.021165         3.078402
 H         2.082734         1.705941         1.153208
