19
Iteration:  3649
 C        -0.090047         0.079172        -0.027695
 C         1.389510        -0.051992         0.216353
 C         2.167771        -1.321661         0.045107
 C         3.186688        -0.155487         0.039106
 C         4.636760        -0.164827         0.555054
 O         4.455883         0.188916         1.951807
 C         3.041968        -0.076928         2.482488
 C         2.353288         0.516876         1.226653
 O         2.443070         0.499966        -1.003284
 H        -0.422280         1.110714        -0.155803
 H        -0.196057        -0.476359        -0.956467
 H        -0.507142        -0.369091         0.793096
 H         2.342613        -2.137295         0.830248
 H         1.973951        -1.707017        -0.991241
 H         5.138427        -1.114798         0.313046
 H         5.157807         0.593753         0.049916
 H         2.926808        -1.217229         2.543526
 H         2.920121         0.645257         3.358428
 H         2.477741         1.596340         1.148134
