19
Iteration:  1642
 C        -0.114573         0.159220        -0.208470
 C         1.369184        -0.129535         0.058751
 C         2.134217        -1.418375         0.053484
 C         3.172796        -0.180995         0.114544
 C         4.564212        -0.035461         0.503376
 O         4.561507         0.115405         2.061771
 C         3.246927         0.027730         2.569131
 C         2.413094         0.460859         1.218578
 O         2.294500         0.469027        -0.948162
 H        -0.812522        -0.762449         0.056684
 H        -0.697347         1.009750         0.267075
 H        -0.380217         0.148865        -1.311263
 H         2.147100        -2.144271         0.853483
 H         2.273775        -1.881498        -0.904666
 H         5.390073        -0.753638         0.153428
 H         4.995081         0.911265         0.276151
 H         2.906225        -0.930099         2.958697
 H         3.054836         0.738474         3.420223
 H         2.426042         1.551237         1.255560
