19
Iteration:  2926charge 0 multiplicity 1
 C        -0.073297         0.053295        -0.220911
 C         1.363544        -0.062249         0.176985
 C         2.195868        -1.305935         0.126371
 C         3.176908        -0.126505         0.136305
 C         4.652953         0.010392         0.528959
 O         4.531450        -0.232485         1.975735
 C         3.160223         0.164724         2.452771
 C         2.406311         0.601559         1.233066
 O         2.254625         0.463668        -0.962445
 H        -0.729776        -0.489176         0.533209
 H        -0.567229         0.987528        -0.296291
 H        -0.250099        -0.627949        -1.123246
 H         2.128108        -1.981174         1.058828
 H         2.069989        -1.835314        -0.852003
 H         5.341744        -0.810181         0.160772
 H         5.017173         0.974737         0.381377
 H         2.569834        -0.691632         3.072035
 H         3.364853         0.935954         3.246299
 H         2.316786         1.647994         0.957382
