19
Iteration:   373charge 0 multiplicity 1
 C        -0.074314        -0.008406        -0.081732
 C         1.398768        -0.102650         0.144692
 C         2.202234        -1.377479         0.097744
 C         3.193661        -0.111049         0.065956
 C         4.586110         0.029754         0.588312
 O         4.489196        -0.103936         2.030164
 C         3.127562         0.022272         2.386912
 C         2.425913         0.616679         1.192205
 O         2.293564         0.547452        -0.994573
 H        -0.634060        -0.503485         0.622830
 H        -0.403667         1.054795        -0.254121
 H        -0.277428        -0.545895        -1.060975
 H         2.190073        -1.932179         1.012164
 H         2.313015        -2.089254        -0.686780
 H         5.139890        -0.787829         0.279366
 H         4.915640         1.078427         0.366453
 H         2.764258        -0.902257         2.792806
 H         3.144502         0.848322         3.208927
 H         2.430796         1.691260         0.973885
