19
Iteration:  2244charge 0 multiplicity 1
 C        -0.087615         0.002542        -0.041194
 C         1.377009        -0.121165         0.188392
 C         2.302924        -1.362061         0.106582
 C         3.130175        -0.044658         0.053212
 C         4.607809        -0.110658         0.580463
 O         4.474188        -0.035322         1.995784
 C         3.055777         0.131566         2.407652
 C         2.353852         0.584473         1.189912
 O         2.400803         0.477344        -1.003202
 H        -0.720608         0.238616         0.792625
 H        -0.206448         0.984223        -0.497650
 H        -0.575476        -0.777826        -0.713313
 H         2.440635        -2.034152         1.003817
 H         2.263099        -1.900092        -0.900251
 H         4.942181        -1.099964         0.203402
 H         5.341658         0.597206         0.062614
 H         2.514474        -0.772534         2.746021
 H         3.026768         0.871858         3.213457
 H         2.522687         1.698177         0.942982
