19
Iteration:   257charge 0 multiplicity 1
 C        -0.089907        -0.022395        -0.094441
 C         1.399863        -0.086786         0.065848
 C         2.271673        -1.273028        -0.027672
 C         3.198457        -0.079852         0.074990
 C         4.629002        -0.187817         0.550374
 O         4.474687         0.072039         1.968195
 C         3.141317         0.096095         2.515320
 C         2.292620         0.466918         1.249253
 O         2.337033         0.563675        -0.931540
 H        -0.457850        -0.396163         0.830577
 H        -0.584831         1.023032        -0.228234
 H        -0.581844        -0.777712        -0.763606
 H         2.171955        -2.042110         0.893276
 H         2.369875        -1.863632        -0.964605
 H         4.817059        -1.331840         0.483435
 H         5.363944         0.541036         0.260035
 H         2.907818        -0.936092         2.986310
 H         3.120168         0.879052         3.306117
 H         2.198518         1.624251         1.154275
