19
Iteration:  1715
 C        -0.102569         0.000883         0.034165
 C         1.407280        -0.101278         0.055993
 C         2.385515        -1.352704         0.112961
 C         3.227357        -0.022869         0.048152
 C         4.712235        -0.021332         0.612557
 O         4.434253        -0.262526         2.062288
 C         3.040217         0.136813         2.333791
 C         2.323923         0.626464         1.090457
 O         2.255692         0.530459        -1.004516
 H        -0.458056        -0.246601         0.949657
 H        -0.372311         1.080870        -0.171215
 H        -0.615850        -0.601111        -0.741282
 H         2.294963        -1.969695         1.007625
 H         2.286768        -1.997228        -0.748442
 H         5.389706        -0.754040         0.320420
 H         5.180043         1.003295         0.387049
 H         2.569035        -0.759560         2.830924
 H         2.998316         0.922139         3.061161
 H         2.186642         1.675179         1.269823
