19
Iteration:   411charge 0 multiplicity 1
 C        -0.020435        -0.172242         0.016832
 C         1.456654        -0.022300         0.170110
 C         2.402120        -1.274848         0.164188
 C         3.181391         0.085300         0.071017
 C         4.607295        -0.058496         0.516252
 O         4.364514        -0.332083         1.951610
 C         2.965820         0.122860         2.410622
 C         2.325691         0.714224         1.172959
 O         2.353488         0.555829        -1.063488
 H        -0.548595        -0.299560         1.050982
 H        -0.489296         0.733410        -0.354262
 H        -0.195069        -0.989514        -0.656286
 H         2.294911        -1.748323         1.168577
 H         2.534255        -1.800530        -0.801211
 H         5.106783        -0.951066        -0.013952
 H         5.336234         0.685149         0.335585
 H         2.434384        -0.734975         2.911931
 H         3.177050         0.839094         3.122282
 H         2.261980         1.789487         1.307767
