19
Iteration:  1667
 C        -0.071765         0.095979        -0.134428
 C         1.360223        -0.104992         0.165882
 C         2.191995        -1.375592         0.144825
 C         3.182423        -0.188349         0.131358
 C         4.663252         0.018490         0.585789
 O         4.555534         0.004277         1.950605
 C         3.071556         0.024787         2.399213
 C         2.334712         0.548291         1.126972
 O         2.330454         0.503837        -0.925000
 H        -0.733241        -0.816126         0.187378
 H        -0.615747         0.965641         0.185452
 H        -0.222013         0.062195        -1.214734
 H         2.167975        -1.959724         1.098517
 H         2.206920        -2.085849        -0.724901
 H         5.434771        -0.780150         0.212688
 H         5.120096         0.963831         0.266000
 H         2.639343        -1.052919         2.583669
 H         3.050642         0.527227         3.424741
 H         2.415451         1.664250         1.090138
