19
Iteration:  1009charge 0 multiplicity 1
 C        -0.191340         0.002238        -0.190323
 C         1.381015        -0.092023         0.158060
 C         2.209241        -1.369230         0.084661
 C         3.128242        -0.093662         0.087384
 C         4.634777        -0.030094         0.587116
 O         4.588964        -0.147525         2.032114
 C         3.169103         0.051429         2.476961
 C         2.365371         0.575741         1.223816
 O         2.317414         0.620408        -0.982269
 H        -0.897392        -0.330697         0.688439
 H        -0.423851         0.975260        -0.596991
 H        -0.304320        -0.701985        -1.017705
 H         2.201735        -2.093565         0.804689
 H         2.258499        -1.896411        -0.836041
 H         5.361027        -0.696201         0.146165
 H         5.044942         0.965283         0.397789
 H         2.686224        -0.810915         2.684699
 H         3.191172         0.729592         3.351952
 H         2.451311         1.599995         1.005075
