19
Iteration:  4739charge 0 multiplicity 1
 C        -0.103264        -0.019274        -0.049204
 C         1.414681        -0.128067         0.198286
 C         2.365296        -1.283006        -0.060104
 C         3.163140        -0.001391         0.078514
 C         4.619095         0.152339         0.593332
 O         4.462107        -0.425231         1.900896
 C         3.060617        -0.041201         2.411841
 C         2.348270         0.597618         1.273271
 O         2.329396         0.675154        -0.878997
 H        -0.466772         0.973488         0.023400
 H        -0.414516        -0.155438        -1.104190
 H        -0.709336        -0.798958         0.470961
 H         2.595145        -2.056404         0.795922
 H         2.372455        -1.703299        -1.022469
 H         5.404032        -0.387854         0.075220
 H         4.776385         1.219138         0.512969
 H         2.526576        -0.978771         2.645226
 H         3.124761         0.677200         3.224371
 H         2.141348         1.718461         1.232649
