19
Iteration:  2801charge 0 multiplicity 1
 C        -0.101738         0.055925        -0.161872
 C         1.399953        -0.138707         0.177922
 C         2.282183        -1.398981         0.162951
 C         3.183397        -0.096205         0.157432
 C         4.609234        -0.091046         0.496295
 O         4.512325        -0.127316         1.962365
 C         3.071250         0.102102         2.388687
 C         2.378298         0.709650         1.173796
 O         2.319125         0.521726        -0.911859
 H        -0.726788        -0.638857         0.351165
 H        -0.534312         1.100714         0.124474
 H        -0.438583        -0.040999        -1.150429
 H         2.241379        -2.034417         0.990223
 H         2.329313        -2.006375        -0.745166
 H         5.239760        -0.873779         0.137293
 H         5.029282         0.876683         0.163715
 H         2.602895        -1.006852         2.686427
 H         3.239618         0.621310         3.359754
 H         2.272718         1.816725         1.086967
