19
Iteration:  1607charge 0 multiplicity 1
 C        -0.003387         0.166950        -0.132502
 C         1.358349        -0.114200         0.141944
 C         2.260625        -1.420827         0.080274
 C         3.193143        -0.152702         0.119420
 C         4.662264        -0.175738         0.465871
 O         4.453423         0.213659         1.914440
 C         3.061942        -0.014008         2.434611
 C         2.261708         0.450034         1.234034
 O         2.360367         0.514515        -0.824941
 H        -0.494714        -0.569761         0.480565
 H        -0.264425         1.296926         0.115893
 H        -0.077751        -0.077609        -1.244029
 H         2.163508        -2.182491         0.842746
 H         2.279933        -1.842791        -0.917435
 H         5.107291        -1.146856         0.307974
 H         5.225322         0.690645         0.058690
 H         2.872112        -0.983542         2.743873
 H         3.062677         0.645637         3.264781
 H         1.994486         1.490955         1.346796
