19
Iteration:  3737charge 0 multiplicity 1
 C        -0.018475         0.096941        -0.065481
 C         1.400800        -0.017940         0.118144
 C         2.200947        -1.450771         0.154862
 C         3.206517        -0.117672         0.086487
 C         4.676078         0.141312         0.480952
 O         4.459847        -0.199685         1.943913
 C         3.046436        -0.014899         2.430528
 C         2.288256         0.622720         1.156837
 O         2.387612         0.491359        -0.880522
 H        -0.193435         0.518667        -1.110166
 H        -0.540516        -0.841758        -0.005863
 H        -0.700021         0.587311         0.507870
 H         2.141565        -2.063106         1.096516
 H         2.061738        -2.033711        -0.855931
 H         5.316454        -0.544776        -0.000999
 H         4.922846         1.138947         0.377498
 H         2.679736        -1.115198         2.689229
 H         3.198270         0.711324         3.329970
 H         2.376918         1.693575         1.163575
