19
Iteration:   282
 C        -0.121516         0.050001        -0.127966
 C         1.384198        -0.084999         0.175728
 C         2.195770        -1.371869         0.066518
 C         3.169613        -0.229886         0.081279
 C         4.641011        -0.136894         0.591942
 O         4.533971         0.258207         2.047913
 C         3.098959        -0.076291         2.333715
 C         2.406779         0.587162         1.192767
 O         2.331459         0.546074        -0.935433
 H        -0.693302        -0.596093         0.704369
 H        -0.408638         1.006429        -0.016674
 H        -0.491079        -0.353758        -1.001166
 H         2.151431        -2.224666         0.768609
 H         2.139195        -1.819186        -0.969440
 H         5.020272        -1.140689         0.699896
 H         5.204042         0.646470         0.079900
 H         2.998492        -1.226561         2.257294
 H         2.854284         0.215755         3.341493
 H         2.510383         1.632571         1.124335
