19
Iteration:  4114
 C        -0.195293        -0.027694        -0.105836
 C         1.362694        -0.054068         0.137428
 C         2.296291        -1.343488        -0.002915
 C         3.235331        -0.061270         0.051159
 C         4.654103         0.050409         0.581959
 O         4.455862        -0.271327         1.976676
 C         3.069143         0.026652         2.438129
 C         2.345380         0.510186         1.215087
 O         2.402630         0.660244        -0.899126
 H        -0.614290        -1.061046        -0.148533
 H        -0.547138         0.609821         0.764656
 H        -0.593594         0.483770        -0.924202
 H         2.343649        -1.759781         1.026463
 H         2.272907        -2.038147        -0.945352
 H         5.409877        -0.677567         0.001583
 H         5.144051         1.051868         0.345206
 H         2.535345        -0.737608         2.937167
 H         3.206382         0.908582         3.226574
 H         2.323392         1.622074         1.247227
