19
Iteration:  4271charge 0 multiplicity 1
 C        -0.066671         0.089210        -0.097486
 C         1.369743        -0.122929         0.180965
 C         2.322698        -1.301814        -0.099687
 C         3.140051        -0.043248         0.062272
 C         4.592647         0.004205         0.563558
 O         4.461088        -0.026239         2.039365
 C         3.092669        -0.209337         2.413508
 C         2.321906         0.475517         1.286020
 O         2.382676         0.667724        -0.919503
 H        -0.531604         0.852303         0.503454
 H        -0.252293         0.155429        -1.167499
 H        -0.442465        -0.963792         0.302366
 H         2.199217        -2.129868         0.703952
 H         2.119412        -1.646942        -1.084513
 H         4.961033        -0.962341         0.157667
 H         5.128296         0.995629         0.301024
 H         2.864346        -1.263319         2.393072
 H         3.088842         0.273167         3.369258
 H         2.515283         1.574529         1.450245
