19
Iteration:  1640
 C        -0.109915         0.163936        -0.205553
 C         1.321558        -0.141752         0.075073
 C         2.156843        -1.434902         0.033468
 C         3.156211        -0.182098         0.121157
 C         4.552625        -0.049827         0.508739
 O         4.565812         0.122993         2.052801
 C         3.249107         0.036780         2.587977
 C         2.406411         0.466766         1.198714
 O         2.320616         0.477915        -0.940997
 H        -0.745593        -0.690643         0.042584
 H        -0.666673         1.041724         0.353740
 H        -0.280861         0.086160        -1.341294
 H         2.126143        -2.150876         0.844934
 H         2.293342        -1.908091        -0.920660
 H         5.294324        -0.730302         0.179832
 H         5.004772         0.934133         0.245072
 H         2.905845        -0.890093         2.854964
 H         3.132128         0.696784         3.409527
 H         2.388486         1.529749         1.263995
