19
Iteration:   755charge 0 multiplicity 1
 C        -0.016708        -0.019932         0.047874
 C         1.405895        -0.022433         0.089194
 C         2.324138        -1.273971         0.066472
 C         3.181075        -0.043063         0.085164
 C         4.605277        -0.009201         0.584709
 O         4.406236        -0.184185         1.977425
 C         3.011154         0.039681         2.416025
 C         2.380089         0.596956         1.149999
 O         2.307122         0.476268        -1.017281
 H        -0.168665        -0.510116         0.895895
 H        -0.483993         1.060540         0.018792
 H        -0.393969        -0.646431        -0.760526
 H         2.275095        -1.945660         0.951133
 H         2.507192        -1.892702        -0.827633
 H         5.371188        -0.700131         0.098909
 H         5.042250         0.975645         0.402436
 H         2.543081        -0.859132         2.740639
 H         3.122503         0.708243         3.311876
 H         2.500747         1.755124         1.080255
