19
Iteration:  4338charge 0 multiplicity 1
 C        -0.140902         0.136076        -0.142705
 C         1.443659        -0.165402         0.228109
 C         2.367358        -1.297006        -0.127742
 C         3.163568        -0.025904         0.081116
 C         4.673914         0.040499         0.577298
 O         4.505705        -0.098823         2.035881
 C         3.061841        -0.212391         2.381994
 C         2.298023         0.439571         1.255868
 O         2.268967         0.660851        -0.865089
 H        -0.201225         1.028159        -0.681045
 H        -0.775304        -0.586903        -0.676823
 H        -0.624751         0.170147         0.874259
 H         2.467695        -2.160580         0.607753
 H         2.215915        -1.515333        -1.160509
 H         5.407017        -0.750297         0.424744
 H         5.107708         1.108649         0.364546
 H         2.765658        -1.255730         2.486266
 H         2.904630         0.293672         3.270997
 H         2.354379         1.530159         1.268316
