19
Iteration:  1163
 C        -0.104441         0.001029        -0.210426
 C         1.420031        -0.075427         0.044320
 C         2.280903        -1.314723         0.180904
 C         3.173899        -0.050367         0.116854
 C         4.679104        -0.029926         0.559594
 O         4.510233        -0.135532         2.006794
 C         3.099115         0.027561         2.397315
 C         2.423035         0.605008         1.241859
 O         2.209822         0.526724        -0.930396
 H        -0.689710        -0.048578         0.849331
 H        -0.453084         0.928461        -0.566721
 H        -0.576793        -0.790186        -0.883380
 H         2.191177        -1.910094         1.090972
 H         2.239281        -1.830359        -0.797637
 H         5.189317        -0.925886         0.061540
 H         5.184389         0.933542         0.310914
 H         2.674573        -1.072929         2.711940
 H         3.086646         0.663210         3.337094
 H         2.401408         1.674759         1.251404
