19
Iteration:   646charge 0 multiplicity 1
 C        -0.064930         0.005906        -0.043765
 C         1.335947        -0.103808         0.145699
 C         2.246794        -1.337832         0.069466
 C         3.215191        -0.080504         0.091202
 C         4.607330         0.098869         0.553462
 O         4.484153        -0.105526         1.952775
 C         3.030188         0.024854         2.447536
 C         2.419488         0.571987         1.199142
 O         2.395276         0.440613        -0.973916
 H        -0.623595        -0.376529         0.725559
 H        -0.395688         1.158588        -0.062402
 H        -0.343015        -0.460631        -1.036815
 H         2.106880        -1.965248         0.978831
 H         2.033081        -1.810428        -0.891815
 H         5.228943        -0.741091         0.159403
 H         4.926738         0.990356         0.062151
 H         2.717441        -0.935644         2.755835
 H         2.915579         0.719802         3.407658
 H         2.315448         1.738903         1.238584
