19
Iteration:   506
 C        -0.056305         0.056649        -0.133202
 C         1.418663        -0.052282         0.150958
 C         2.292477        -1.351104         0.136640
 C         3.198313        -0.119938         0.059740
 C         4.641280        -0.038248         0.495190
 O         4.455306         0.038446         1.953489
 C         3.042969        -0.066898         2.354144
 C         2.309569         0.583893         1.269261
 O         2.319461         0.450011        -0.879154
 H        -0.656953        -0.579984         0.463204
 H        -0.492128         1.108935         0.115065
 H        -0.169740        -0.158394        -1.221643
 H         2.222984        -1.947809         1.039404
 H         2.218002        -1.805960        -0.835741
 H         5.408960        -0.845789         0.383805
 H         5.128641         1.009086         0.194644
 H         2.788834        -1.108378         2.584097
 H         3.039728         0.495649         3.410941
 H         2.376071         1.711006         1.236921
