19
Iteration:  4615
 C        -0.082159         0.098437        -0.090199
 C         1.358019        -0.148795         0.196177
 C         2.365786        -1.296453        -0.159130
 C         3.171085        -0.021089         0.030746
 C         4.592295         0.055001         0.597310
 O         4.479983        -0.023581         2.030266
 C         3.109435        -0.262908         2.445594
 C         2.320743         0.375415         1.287715
 O         2.310796         0.719408        -0.924822
 H         0.022005         1.058831        -0.689470
 H        -0.764768        -0.660248        -0.487950
 H        -0.572775         0.356906         0.837967
 H         2.582405        -2.076443         0.648101
 H         2.120521        -1.683248        -1.304199
 H         4.964047        -0.888822         0.234825
 H         5.230847         0.804224         0.195346
 H         2.807770        -1.370637         2.712098
 H         3.084317         0.162570         3.422297
 H         2.276043         1.415291         1.600043
