19
Iteration:  2220
 C        -0.057685         0.004794         0.035384
 C         1.400542        -0.035798         0.017401
 C         2.256050        -1.327846         0.040571
 C         3.197398        -0.233980         0.067816
 C         4.756233        -0.231606         0.636253
 O         4.432868         0.113717         2.047239
 C         3.060793         0.080586         2.390888
 C         2.373000         0.579566         1.144855
 O         2.264581         0.561683        -1.009004
 H        -0.364389         0.130714         1.095470
 H        -0.550450         0.776202        -0.390613
 H        -0.457993        -0.917874        -0.347584
 H         2.082751        -1.926107         0.961891
 H         2.337222        -1.933509        -0.910557
 H         5.299578        -1.245066         0.504477
 H         5.338610         0.493171         0.165457
 H         2.551958        -0.875050         2.591435
 H         2.833482         0.763724         3.291698
 H         2.360272         1.746205         0.976832
