19
Iteration:   872charge 0 multiplicity 1
 C        -0.034792         0.045329        -0.123244
 C         1.372929        -0.111073         0.072192
 C         2.257137        -1.345123         0.003622
 C         3.143084        -0.115610         0.183855
 C         4.597466        -0.129128         0.517164
 O         4.540930         0.142925         2.028533
 C         3.150871        -0.047756         2.409372
 C         2.332015         0.498507         1.249426
 O         2.274325         0.567420        -0.902437
 H        -0.695873        -0.634165         0.456227
 H        -0.395683         1.106829         0.141584
 H        -0.372929        -0.042387        -1.215811
 H         1.980097        -2.154297         0.714377
 H         2.476230        -1.839061        -0.929443
 H         5.125014        -1.054619         0.351017
 H         5.294754         0.543726        -0.002939
 H         2.908117        -1.160152         2.732314
 H         3.088624         0.589221         3.281980
 H         2.150085         1.586038         1.262183
