19
Iteration:  1136
 C        -0.083235        -0.008165        -0.093132
 C         1.378616        -0.098777         0.219896
 C         2.273266        -1.285293         0.111198
 C         3.161430        -0.074075         0.099772
 C         4.613096        -0.201359         0.517712
 O         4.435984         0.048605         1.955735
 C         3.078434        -0.008595         2.405241
 C         2.300315         0.554037         1.263421
 O         2.467820         0.566713        -1.006050
 H        -0.583832        -0.357031         0.700169
 H        -0.434782         1.086746        -0.231939
 H        -0.350314        -0.544076        -0.955910
 H         2.327395        -1.896563         1.044909
 H         2.202580        -1.547191        -0.946716
 H         5.013994        -1.152018         0.170136
 H         5.115079         0.659976         0.080122
 H         2.860203        -0.975403         2.613136
 H         3.018978         0.518215         3.343154
 H         2.136902         1.672297         1.251780
