19
Iteration:  2751charge 0 multiplicity 1
 C        -0.087820         0.099652        -0.123220
 C         1.338588        -0.106474         0.137478
 C         2.185726        -1.382452         0.097066
 C         3.116077        -0.213514         0.167518
 C         4.543692        -0.035118         0.499161
 O         4.566334        -0.000837         1.970192
 C         3.141751         0.108939         2.408635
 C         2.331151         0.563468         1.225023
 O         2.424131         0.472923        -0.881219
 H        -0.776177        -0.790701        -0.053451
 H        -0.556060         0.939249         0.307179
 H        -0.229796         0.512599        -1.181915
 H         2.084085        -2.253388         0.868650
 H         2.226381        -1.859366        -0.905603
 H         5.192164        -0.939529         0.153436
 H         5.071011         0.826197         0.032790
 H         2.838497        -0.863597         2.571613
 H         3.294117         0.694628         3.318332
 H         2.606666         1.604857         1.086772
