19
Iteration:  2685charge 0 multiplicity 1
 C        -0.093997         0.182169         0.025494
 C         1.444834        -0.099259         0.098341
 C         2.257295        -1.418386         0.045299
 C         3.211214        -0.207071         0.149817
 C         4.723262        -0.117062         0.599527
 O         4.466838         0.109991         1.993686
 C         3.040006         0.016210         2.324561
 C         2.295712         0.588306         1.154511
 O         2.300191         0.491666        -0.947741
 H        -0.525139        -0.266555         0.942931
 H        -0.163214         1.264641         0.042178
 H        -0.496255        -0.248124        -0.911136
 H         2.156250        -2.201062         0.863187
 H         2.274181        -1.985261        -0.937038
 H         5.189482        -1.181034         0.391668
 H         5.379892         0.613518         0.093501
 H         2.615466        -1.078637         2.335446
 H         2.858244         0.339008         3.342344
 H         2.324650         1.625313         0.885863
