19
Iteration:  1484
 C        -0.064513        -0.016512        -0.139524
 C         1.431464        -0.042941         0.204933
 C         2.341445        -1.370100         0.244566
 C         3.163047        -0.089170         0.040836
 C         4.558235         0.106361         0.600004
 O         4.445361        -0.393626         1.906915
 C         3.093567         0.148765         2.453325
 C         2.385510         0.687659         1.188910
 O         2.278755         0.487965        -1.052536
 H        -0.663771        -0.583114         0.620341
 H        -0.309396         1.135666        -0.209329
 H        -0.144681        -0.317320        -1.216362
 H         2.519850        -1.819348         1.230993
 H         2.214046        -2.033135        -0.624109
 H         5.390084        -0.514125         0.278839
 H         4.773583         1.237035         0.476967
 H         2.619203        -0.645458         2.926532
 H         3.132350         0.967615         3.169005
 H         2.400862         1.797198         1.107276
