19
Iteration:  2948charge 0 multiplicity 1
 C        -0.048200         0.088193        -0.169069
 C         1.407847        -0.100027         0.127301
 C         2.222919        -1.393403         0.108377
 C         3.146361        -0.172949         0.059727
 C         4.543708        -0.043727         0.519982
 O         4.488412        -0.141632         1.978920
 C         3.162928         0.138825         2.465715
 C         2.400240         0.645143         1.222708
 O         2.290557         0.506444        -0.916173
 H        -0.610390        -0.761866         0.300140
 H        -0.296075         1.035703         0.250840
 H        -0.277830        -0.077924        -1.280749
 H         2.371522        -1.980710         1.092691
 H         2.131389        -2.072704        -0.781823
 H         5.154074        -0.964802         0.261118
 H         4.911129         0.906066         0.286016
 H         2.797500        -0.649257         3.264175
 H         3.323010         0.943760         3.249664
 H         2.426398         1.675532         0.888597
