19
Iteration:  1696
 C         0.003252         0.047494        -0.015935
 C         1.428650        -0.102832         0.175236
 C         2.372890        -1.293041         0.112191
 C         3.178717        -0.051608         0.096193
 C         4.602535        -0.015143         0.510031
 O         4.413830        -0.132279         1.943104
 C         2.971903         0.044623         2.476732
 C         2.324864         0.624757         1.182532
 O         2.338864         0.431614        -1.049496
 H        -0.543686        -0.600605         0.748323
 H        -0.434734         1.072035         0.004852
 H        -0.454581        -0.210088        -0.982417
 H         2.484752        -1.880306         1.017177
 H         2.425066        -1.833625        -0.818005
 H         5.049594        -1.002794         0.205845
 H         5.253835         0.831028         0.326696
 H         2.542946        -0.833471         2.801736
 H         3.075779         0.719630         3.335896
 H         2.388694         1.732736         1.165485
