19
Iteration:   328
 C        -0.031315         0.299474        -0.068216
 C         1.344364        -0.244898         0.053831
 C         2.300313        -1.501313        -0.011815
 C         3.097060        -0.180942         0.123497
 C         4.525990         0.026156         0.502271
 O         4.540900         0.174823         2.024604
 C         3.156289         0.036997         2.447523
 C         2.258446         0.408148         1.243749
 O         2.402211         0.411900        -0.890576
 H        -0.824369        -0.353345         0.366674
 H        -0.058311         1.298162         0.277521
 H        -0.315911         0.381584        -1.123332
 H         2.289276        -2.124775         0.814593
 H         2.226181        -2.139218        -0.884353
 H         5.153708        -0.762916         0.300356
 H         4.740289         1.045032         0.103400
 H         3.069292        -1.042847         2.596071
 H         3.118494         0.572270         3.439865
 H         2.126973         1.451861         1.031548
