19
Iteration:  4241charge 0 multiplicity 1
 C        -0.125270         0.108556        -0.090977
 C         1.396167        -0.150117         0.041430
 C         2.372088        -1.315391        -0.048523
 C         3.206635        -0.069012         0.131504
 C         4.724502         0.018950         0.578973
 O         4.492038        -0.091897         2.045095
 C         3.029968        -0.149307         2.403565
 C         2.350049         0.479839         1.216568
 O         2.190903         0.679155        -0.881909
 H        -0.488714         0.690579         0.753955
 H        -0.396806         0.682858        -1.050809
 H        -0.620114        -0.962383        -0.201436
 H         2.198633        -1.912006         0.856431
 H         2.380911        -1.810705        -0.986380
 H         5.249632        -0.796116         0.112006
 H         5.329365         0.976423         0.333612
 H         2.765016        -1.279087         2.573475
 H         3.095426         0.226075         3.386039
 H         2.531576         1.549628         1.377324
