19
Iteration:  2026
 C        -0.010840        -0.053481         0.152000
 C         1.415270        -0.115789         0.099432
 C         2.303627        -1.333763         0.087716
 C         3.230615        -0.055313         0.001805
 C         4.634659         0.039648         0.664293
 O         4.379817        -0.340977         1.964078
 C         2.954306         0.201155         2.401513
 C         2.439735         0.625522         1.091151
 O         2.337781         0.554321        -1.075913
 H        -0.376867         0.046369         1.150142
 H        -0.448097         0.748910        -0.410456
 H        -0.623180        -0.825663        -0.315568
 H         2.371002        -1.944222         0.975868
 H         2.172593        -2.000014        -0.766595
 H         5.475900        -0.547776         0.441645
 H         4.786191         1.140364         0.565724
 H         2.450673        -0.720109         2.869980
 H         3.018650         1.130227         2.961494
 H         2.510233         1.691195         0.885305
