19
Iteration:  3980charge 0 multiplicity 1
 C        -0.036319         0.095021        -0.074320
 C         1.393995        -0.036501         0.025065
 C         2.277030        -1.349651         0.063950
 C         3.181599        -0.104688         0.132188
 C         4.571577        -0.088439         0.538720
 O         4.468323        -0.024903         1.995448
 C         3.096227         0.005409         2.456312
 C         2.343580         0.477444         1.237905
 O         2.280787         0.553905        -0.966844
 H        -0.292675         0.439721        -1.053945
 H        -0.444909        -0.892289        -0.057798
 H        -0.449006         0.792958         0.743511
 H         2.295288        -2.070935         1.010400
 H         2.453701        -1.939043        -0.840526
 H         5.233864        -0.924512         0.252928
 H         5.180633         0.732880         0.039801
 H         2.911085        -0.954212         2.791329
 H         3.114507         0.660616         3.417314
 H         2.498878         1.550189         1.232477
