19
Iteration:  4109charge 0 multiplicity 1
 C        -0.142760        -0.035961        -0.112996
 C         1.308529        -0.030119         0.089931
 C         2.276903        -1.282901         0.006256
 C         3.226077        -0.080621         0.059963
 C         4.685655         0.048214         0.595509
 O         4.455172        -0.261565         1.988728
 C         3.098676         0.043820         2.417876
 C         2.371559         0.471907         1.201005
 O         2.368782         0.650190        -0.892056
 H        -0.610808        -1.012586        -0.131433
 H        -0.464802         0.440555         0.795953
 H        -0.701298         0.547923        -0.931877
 H         2.308436        -1.752386         0.999033
 H         2.245975        -1.996529        -0.754057
 H         5.328537        -0.725926         0.319982
 H         5.026371         1.065416         0.421151
 H         2.679999        -0.953742         2.865539
 H         3.259323         0.839721         3.084349
 H         2.277987         1.553609         1.243418
