19
Iteration:  2570charge 0 multiplicity 1
 C        -0.098423         0.086822         0.069924
 C         1.409796        -0.113063         0.164174
 C         2.298871        -1.383829         0.114020
 C         3.233306        -0.086771         0.059103
 C         4.578536         0.048929         0.559784
 O         4.384262        -0.330565         1.924451
 C         3.024153         0.201090         2.366176
 C         2.282892         0.692241         1.140052
 O         2.476479         0.419823        -1.003466
 H        -0.755382        -0.332022         0.893642
 H        -0.444401         1.156081         0.051526
 H        -0.419874        -0.415329        -0.940531
 H         2.329914        -2.110405         0.949991
 H         2.384901        -1.948083        -0.788674
 H         5.468398        -0.547960         0.206208
 H         5.058069         1.095648         0.633833
 H         2.651643        -0.654967         2.860738
 H         3.339875         0.974162         3.194451
 H         2.290699         1.834054         1.069440
