19
Iteration:  2590charge 0 multiplicity 1
 C        -0.041532         0.108326        -0.117716
 C         1.363230        -0.187000         0.275180
 C         2.280041        -1.306984         0.227700
 C         3.142095        -0.015168         0.053938
 C         4.565373         0.082631         0.535018
 O         4.421485        -0.307594         1.954502
 C         3.073389         0.110952         2.409504
 C         2.357601         0.582773         1.185510
 O         2.420896         0.459921        -1.091624
 H        -0.503553        -0.026448         0.949109
 H        -0.072575         1.119054        -0.510700
 H        -0.549932        -0.640040        -0.867805
 H         2.336928        -1.899852         1.127376
 H         2.161439        -1.890373        -0.652841
 H         5.231462        -0.614077         0.099109
 H         5.199905         1.030685         0.414405
 H         2.795336        -0.818221         2.915841
 H         3.273772         0.942649         3.151390
 H         2.190631         1.679488         1.284339
