19
Iteration:  2203charge 0 multiplicity 1
 C        -0.082163         0.039256         0.085386
 C         1.406320        -0.059527         0.034318
 C         2.209035        -1.353371        -0.028033
 C         3.257382        -0.223814         0.115871
 C         4.608646        -0.172637         0.714096
 O         4.505907         0.187954         2.067671
 C         3.048995         0.012097         2.415814
 C         2.455954         0.587140         1.072474
 O         2.276774         0.515623        -1.086248
 H        -0.473581        -0.063587         1.096506
 H        -0.511749         1.091551        -0.363316
 H        -0.529953        -0.937442        -0.361970
 H         2.100909        -2.107818         0.768528
 H         2.005701        -1.851545        -0.978343
 H         4.983072        -1.224935         0.577299
 H         5.339609         0.576165         0.144176
 H         2.880846        -1.094986         2.707105
 H         2.734035         0.602549         3.302859
 H         2.528267         1.653506         1.032813
