19
Iteration:  2031
 C         0.018479        -0.048203         0.140538
 C         1.420371        -0.089520         0.087448
 C         2.318184        -1.307973         0.094463
 C         3.250886        -0.114971        -0.026270
 C         4.637554         0.054760         0.642311
 O         4.337651        -0.323221         1.997496
 C         2.956942         0.189190         2.424839
 C         2.450006         0.610530         1.066919
 O         2.283181         0.557606        -1.070862
 H        -0.365353        -0.069482         1.218086
 H        -0.522555         0.862661        -0.362102
 H        -0.536125        -0.920432        -0.303418
 H         2.250409        -1.990525         0.987246
 H         2.302842        -1.861970        -0.873959
 H         5.509091        -0.724642         0.418740
 H         5.022133         1.092382         0.692500
 H         2.686559        -0.709030         2.963671
 H         3.073880         1.173567         2.956439
 H         2.438794         1.701545         0.855980
