19
Iteration:   453
 C        -0.077696         0.037196         0.025111
 C         1.440542        -0.087102         0.056193
 C         2.385955        -1.374604         0.036865
 C         3.271734        -0.090366         0.159791
 C         4.646035         0.148205         0.649031
 O         4.365729        -0.422943         1.939234
 C         3.046386         0.270102         2.476421
 C         2.356523         0.525414         1.140229
 O         2.206538         0.495118        -1.032437
 H        -0.527813        -0.317889         0.983431
 H        -0.517535         1.049122        -0.262174
 H        -0.344083        -0.638690        -0.801739
 H         2.374364        -2.245241         0.739369
 H         2.393817        -1.648221        -1.008819
 H         5.556030        -0.330214         0.166189
 H         5.094810         1.196870         0.644935
 H         2.757353        -0.460814         3.254262
 H         3.257415         1.298713         2.920367
 H         2.382931         1.616208         0.881024
