19
Iteration:  2457
 C        -0.138503         0.251346        -0.263095
 C         1.325549        -0.122464         0.114901
 C         2.153985        -1.420339         0.135103
 C         3.196156        -0.256639         0.126471
 C         4.660323         0.035422         0.549361
 O         4.545446         0.078650         1.962512
 C         3.149501        -0.008634         2.490896
 C         2.421645         0.551529         1.256952
 O         2.276168         0.368422        -0.901371
 H        -0.739218         0.140093         0.728346
 H        -0.145035         1.330393        -0.573466
 H        -0.353837        -0.528206        -1.008879
 H         2.270286        -2.122608         0.922404
 H         2.153720        -1.926173        -0.842736
 H         5.453643        -0.593879         0.208001
 H         4.767828         1.130312         0.125899
 H         2.916727        -1.075548         2.598422
 H         3.146869         0.399828         3.489135
 H         2.582983         1.564808         1.005241
