19
Iteration:  4222
 C        -0.127055         0.047996        -0.058582
 C         1.380702        -0.094000         0.105098
 C         2.374504        -1.361270        -0.057715
 C         3.158478        -0.044785         0.052164
 C         4.614768         0.052929         0.578264
 O         4.471601        -0.160741         2.007356
 C         3.087196        -0.120119         2.432782
 C         2.325337         0.487537         1.210196
 O         2.352683         0.672856        -0.860791
 H        -0.544117         0.538895         0.822840
 H        -0.214968         0.816907        -0.866461
 H        -0.484771        -0.856788        -0.389391
 H         2.426530        -2.070800         0.777539
 H         2.212762        -1.841556        -1.101694
 H         5.281161        -0.766366         0.278269
 H         4.840611         1.048762         0.342044
 H         2.705241        -1.140540         2.626207
 H         2.941889         0.695033         3.225688
 H         2.307720         1.601004         1.349484
