19
Iteration:  4477charge 0 multiplicity 1
 C        -0.039358        -0.044828        -0.052633
 C         1.390618        -0.007226         0.083187
 C         2.318172        -1.293917        -0.011533
 C         3.223648        -0.019907         0.053985
 C         4.686449         0.133161         0.621520
 O         4.421888        -0.363214         1.986373
 C         3.041266        -0.081918         2.391298
 C         2.419545         0.529187         1.228583
 O         2.204944         0.687014        -0.896754
 H        -0.471490         0.751091         0.556852
 H        -0.380686         0.263905        -1.035612
 H        -0.424458        -1.071175         0.132698
 H         2.454286        -1.968145         0.820917
 H         2.110648        -1.835565        -0.852860
 H         5.536134        -0.431256         0.157079
 H         4.823964         1.211297         0.489547
 H         2.642932        -1.072585         2.755621
 H         3.198057         0.625152         3.306723
 H         2.418984         1.606529         1.015456
