19
Iteration:   338
 C        -0.090848         0.307631        -0.093230
 C         1.366444        -0.252557         0.076909
 C         2.303144        -1.518307        -0.028642
 C         3.156574        -0.221979         0.213232
 C         4.577344         0.084564         0.546360
 O         4.503749         0.102947         1.940548
 C         3.146488         0.039969         2.442979
 C         2.297386         0.458651         1.215147
 O         2.338105         0.411085        -0.863464
 H        -0.913443        -0.309836         0.425213
 H        -0.135626         1.278144         0.205626
 H        -0.224081         0.253028        -1.131604
 H         2.281177        -2.210600         0.797794
 H         2.432526        -1.953111        -1.070993
 H         5.331646        -0.617585         0.246193
 H         4.980601         1.021871         0.070949
 H         2.823906        -0.948302         2.905917
 H         2.980323         0.817354         3.226975
 H         2.320113         1.501063         1.174034
