19
Iteration:  1433
 C        -0.117556        -0.017246        -0.065653
 C         1.351580        -0.095043         0.067060
 C         2.332919        -1.283506        -0.011661
 C         3.160918        -0.036716         0.125238
 C         4.651308        -0.121085         0.547486
 O         4.522627        -0.176408         2.084966
 C         3.107522         0.173269         2.507141
 C         2.401370         0.638279         1.152741
 O         2.225598         0.472091        -1.006109
 H        -0.322300        -0.780159         0.595461
 H        -0.416320         0.958926         0.292836
 H        -0.508277        -0.163943        -1.083574
 H         2.327000        -1.872801         0.883710
 H         2.362170        -1.850253        -0.951174
 H         5.269651        -0.984774         0.339231
 H         5.236030         0.746014         0.328527
 H         2.425186        -0.712719         2.843248
 H         3.070043         0.977813         3.247823
 H         2.352842         1.690283         0.926507
