19
Iteration:  1350
 C        -0.111458         0.204292        -0.138823
 C         1.346664        -0.109323         0.135282
 C         2.210287        -1.458915         0.100218
 C         3.204231        -0.192268         0.049611
 C         4.642691         0.035414         0.486713
 O         4.508102         0.218066         2.070278
 C         3.134755        -0.146139         2.415841
 C         2.366195         0.409786         1.206651
 O         2.363295         0.478821        -0.915966
 H        -0.892019         0.328679         0.719126
 H        -0.066446         1.204219        -0.451584
 H        -0.533949        -0.393279        -0.946292
 H         1.992729        -2.187144         0.924046
 H         1.987715        -2.032745        -0.818174
 H         5.283359        -0.874394         0.357257
 H         5.101799         1.008029         0.207838
 H         2.931523        -1.158412         2.528960
 H         2.859031         0.366471         3.342970
 H         2.305532         1.516545         1.157434
