19
Iteration:  1440
 C        -0.117838        -0.034765        -0.074361
 C         1.397231        -0.098050         0.053462
 C         2.335213        -1.302381         0.063216
 C         3.159486        -0.074395         0.109411
 C         4.636257        -0.127564         0.584321
 O         4.530507        -0.214073         2.002608
 C         3.049711         0.198807         2.465630
 C         2.337571         0.696345         1.170465
 O         2.296903         0.488924        -0.973334
 H        -0.403551        -0.869543         0.661303
 H        -0.663374         0.921223         0.360169
 H        -0.472944        -0.163920        -1.125810
 H         2.270375        -1.975189         0.952101
 H         2.417319        -1.588275        -0.994786
 H         5.145263        -0.982893         0.119620
 H         5.063857         0.929491         0.437925
 H         2.615277        -0.614487         2.953831
 H         3.322486         0.879654         3.287479
 H         2.321988         1.802470         0.964483
