19
Iteration:   148
 C        -0.098078        -0.009444        -0.062082
 C         1.404601        -0.135411         0.142638
 C         2.340928        -1.280966        -0.059502
 C         3.202839        -0.138871         0.029927
 C         4.599594        -0.045616         0.559419
 O         4.424703        -0.165447         2.046217
 C         3.116363         0.219932         2.507483
 C         2.401874         0.549161         1.210409
 O         2.248427         0.500129        -0.969491
 H        -0.714893        -0.545868         0.747928
 H        -0.368147         1.091516        -0.015900
 H        -0.430507        -0.280526        -1.100169
 H         2.538629        -2.069360         0.760477
 H         2.272880        -1.791102        -1.029935
 H         5.359712        -0.889908         0.352845
 H         5.024894         0.963700         0.342393
 H         2.689211        -0.630987         3.128818
 H         3.239324         1.060856         3.206613
 H         2.422928         1.662711         0.992557
