19
Iteration:  4384
 C        -0.075897         0.054402        -0.058229
 C         1.399061        -0.036578         0.129834
 C         2.281948        -1.271404        -0.096392
 C         3.170321        -0.012901         0.062852
 C         4.588440         0.153934         0.599542
 O         4.504690        -0.264485         1.988198
 C         3.092167        -0.181605         2.434125
 C         2.317245         0.478614         1.273326
 O         2.356517         0.647647        -0.913377
 H        -0.307087         0.742852        -0.878273
 H        -0.399020        -0.894537        -0.604284
 H        -0.666117        -0.087185         0.870663
 H         2.373430        -1.989951         0.716448
 H         2.181750        -1.783477        -1.108528
 H         5.316747        -0.522584         0.154962
 H         5.034806         1.238271         0.706008
 H         2.647380        -1.169327         2.633660
 H         3.013947         0.396425         3.316459
 H         2.174483         1.565022         1.408959
