19
Iteration:  3634
 C        -0.092832         0.094953        -0.034157
 C         1.361758        -0.084639         0.089794
 C         2.176185        -1.372384         0.060509
 C         3.173103        -0.170372         0.168226
 C         4.627725        -0.108222         0.562546
 O         4.490097         0.153572         1.984238
 C         3.117707        -0.050599         2.327385
 C         2.360157         0.561883         1.184073
 O         2.424337         0.489922        -0.949873
 H        -0.393344         1.067501         0.358265
 H        -0.499130        -0.038213        -1.121686
 H        -0.620306        -0.683449         0.679634
 H         1.813194        -1.940997         0.959546
 H         2.278343        -1.933470        -0.841863
 H         5.119701        -1.059171         0.484705
 H         5.240632         0.713159         0.021890
 H         2.814486        -1.072200         2.609066
 H         3.031548         0.369390         3.294177
 H         2.329938         1.680405         1.255820
