19
Iteration:  4305charge 0 multiplicity 1
 C        -0.085278         0.107803        -0.121079
 C         1.356105        -0.041242         0.049614
 C         2.320798        -1.308586        -0.116938
 C         3.214478        -0.094378         0.090173
 C         4.620856         0.018008         0.573665
 O         4.495072        -0.021612         2.015895
 C         3.098744        -0.222651         2.415026
 C         2.286253         0.376067         1.317539
 O         2.330583         0.693051        -0.835418
 H        -0.503754         1.097699        -0.126695
 H        -0.523687        -0.543866        -0.900402
 H        -0.406244        -0.349260         0.890929
 H         2.151448        -2.145622         0.631620
 H         2.141442        -1.752638        -1.062214
 H         5.316807        -0.781553         0.270532
 H         5.201517         0.980917         0.255326
 H         2.869308        -1.237691         2.736469
 H         2.889853         0.352069         3.260192
 H         2.337155         1.463501         1.216422
