19
Iteration:  2296
 C        -0.075040         0.134239        -0.198317
 C         1.395060        -0.114715         0.062274
 C         2.249792        -1.418126         0.304124
 C         3.193032        -0.181093         0.144015
 C         4.617089         0.148983         0.584390
 O         4.468504        -0.261579         1.945073
 C         3.180168         0.144234         2.460275
 C         2.416452         0.641555         1.113424
 O         2.246616         0.395047        -0.974478
 H        -0.811708        -0.443549         0.385942
 H        -0.350537         1.096347        -0.005303
 H        -0.355519        -0.068412        -1.229843
 H         2.188580        -1.901012         1.278956
 H         2.296095        -2.172196        -0.522013
 H         5.583815        -0.196937         0.062302
 H         4.484956         1.127251         0.350981
 H         2.582633        -0.706412         2.866985
 H         3.297508         0.938771         3.316084
 H         2.351221         1.752105         0.875408
