19
Iteration:  4987charge 0 multiplicity 1
 C        -0.020790         0.028554        -0.003982
 C         1.390701        -0.135181         0.087392
 C         2.394816        -1.303794        -0.082052
 C         3.164338         0.074316         0.101125
 C         4.610663         0.207685         0.650161
 O         4.528870        -0.419572         1.946287
 C         3.032053        -0.112572         2.439655
 C         2.262819         0.518128         1.250548
 O         2.253094         0.672024        -0.963430
 H        -0.284589         1.041246        -0.537292
 H        -0.455380        -0.826510        -0.685504
 H        -0.591546         0.192527         1.007457
 H         2.492365        -2.053620         0.712484
 H         2.271866        -1.572849        -1.074490
 H         5.285387        -0.388328        -0.028367
 H         5.022728         1.274315         0.687640
 H         2.734654        -1.122094         2.670970
 H         3.186115         0.363569         3.348711
 H         2.235942         1.557745         1.408999
