19
Iteration:  4468charge 0 multiplicity 1
 C        -0.143639        -0.017384        -0.051326
 C         1.399549        -0.054870         0.132589
 C         2.378343        -1.338560         0.002170
 C         3.167479        -0.071846         0.111680
 C         4.631254         0.139533         0.608160
 O         4.456305        -0.381576         1.928468
 C         3.014036        -0.074759         2.366176
 C         2.430156         0.598017         1.179840
 O         2.292158         0.736691        -0.882886
 H        -0.589434         0.665412         0.595272
 H        -0.327537         0.065667        -1.109482
 H        -0.618173        -0.995955         0.281629
 H         2.524196        -2.164574         0.821807
 H         2.582454        -1.740471        -1.012259
 H         5.434684        -0.442158         0.140743
 H         4.971058         1.132269         0.643594
 H         2.497663        -0.958060         2.845048
 H         3.050080         0.713200         3.252137
 H         2.396961         1.717002         1.171291
