19
Iteration:  2893charge 0 multiplicity 1
 C        -0.071806         0.090970        -0.074257
 C         1.413565        -0.157267         0.154614
 C         2.332625        -1.315237         0.193682
 C         3.171033        -0.017974         0.105561
 C         4.559813         0.010799         0.494206
 O         4.406614        -0.260731         1.953343
 C         3.061813         0.088414         2.443342
 C         2.370081         0.620605         1.176107
 O         2.373941         0.519258        -1.027826
 H        -0.321958         0.003831         1.041190
 H        -0.190176         0.952175        -0.667653
 H        -0.486429        -0.841716        -0.645718
 H         2.322783        -1.829839         1.254760
 H         2.413868        -2.124137        -0.570030
 H         5.159855        -0.831677        -0.020665
 H         5.046267         0.913566         0.316504
 H         2.414559        -0.935407         2.821260
 H         3.269185         0.834205         3.285199
 H         2.261865         1.714119         1.005271
