19
Iteration:   799charge 0 multiplicity 1
 C        -0.040605         0.196088        -0.041335
 C         1.426760        -0.130532         0.049859
 C         2.270118        -1.398144        -0.008105
 C         3.177818        -0.192132         0.112616
 C         4.619665        -0.029837         0.500502
 O         4.452754         0.187860         2.036134
 C         3.145312        -0.089911         2.462458
 C         2.307175         0.375700         1.246468
 O         2.289580         0.516194        -0.933805
 H        -0.622366        -0.107206         0.720058
 H        -0.212820         1.354096        -0.175711
 H        -0.452871        -0.255547        -0.944320
 H         2.254041        -2.147158         0.778038
 H         2.227567        -1.995801        -0.926899
 H         5.308709        -0.931933         0.313458
 H         5.068824         0.876206         0.025131
 H         3.083119        -1.097531         2.752543
 H         2.787714         0.574853         3.266200
 H         2.230955         1.532627         1.240177
