19
Iteration:  1125
 C        -0.115066         0.023835        -0.055131
 C         1.348581        -0.120771         0.238936
 C         2.226960        -1.347086         0.014687
 C         3.206799        -0.134758         0.038992
 C         4.611326        -0.149853         0.545390
 O         4.453378         0.124437         1.953646
 C         3.050585        -0.020008         2.394242
 C         2.307240         0.557468         1.232863
 O         2.499180         0.574863        -0.937219
 H        -0.571530        -0.490472         0.661042
 H        -0.342708         1.151688         0.037203
 H        -0.362872        -0.361331        -0.993090
 H         2.130606        -2.265868         0.663599
 H         2.080785        -1.955898        -0.898461
 H         5.074629        -1.152057         0.437565
 H         5.387057         0.549980         0.221962
 H         2.725288        -0.924201         2.722699
 H         3.102791         0.705752         3.190555
 H         2.327046         1.695850         1.326336
