19
Iteration:  4302charge 0 multiplicity 1
 C        -0.098547         0.093698        -0.124537
 C         1.334987        -0.049647         0.050634
 C         2.323930        -1.305348        -0.089396
 C         3.230375        -0.114874         0.086183
 C         4.635549         0.017255         0.571748
 O         4.491734        -0.014834         2.008342
 C         3.080330        -0.223309         2.398292
 C         2.282082         0.376993         1.306748
 O         2.354495         0.708813        -0.821531
 H        -0.508550         1.083152        -0.014398
 H        -0.490884        -0.476586        -0.900647
 H        -0.350126        -0.316736         0.795429
 H         2.163486        -2.174085         0.612060
 H         2.086935        -1.728691        -1.063000
 H         5.287237        -0.815212         0.189807
 H         5.104670         0.941741         0.277250
 H         2.902623        -1.251417         2.673342
 H         2.929639         0.464445         3.278455
 H         2.299259         1.478830         1.322565
