19
Iteration:  4119charge 0 multiplicity 1
 C        -0.226030        -0.007139        -0.066926
 C         1.436701        -0.102155         0.154981
 C         2.318935        -1.384375        -0.000668
 C         3.221336        -0.038605         0.057581
 C         4.630457         0.043681         0.537384
 O         4.457736        -0.286970         1.965275
 C         3.046288         0.037364         2.470856
 C         2.323442         0.568472         1.223906
 O         2.423862         0.670853        -0.917005
 H        -0.587383        -1.066929        -0.083124
 H        -0.703316         0.612749         0.683593
 H        -0.391855         0.507597        -1.114508
 H         2.353261        -1.992048         0.912494
 H         2.300608        -1.907213        -0.920585
 H         5.278541        -0.555197        -0.046505
 H         5.128593         0.998933         0.395305
 H         2.479485        -0.746491         3.086272
 H         3.085023         0.775999         3.195014
 H         2.367696         1.657676         1.147605
