19
Iteration:  3375charge 0 multiplicity 1
 C        -0.055766         0.050039        -0.117419
 C         1.358458        -0.133335         0.226051
 C         2.167366        -1.404315         0.106169
 C         3.165859        -0.252898         0.006694
 C         4.541031        -0.141492         0.531819
 O         4.477141         0.087282         1.977422
 C         3.166964         0.130075         2.409847
 C         2.399181         0.559102         1.241833
 O         2.397521         0.569486        -0.935404
 H        -0.806012        -0.516384         0.483499
 H        -0.406208         1.225355        -0.060192
 H        -0.080776        -0.275038        -1.160491
 H         2.202518        -1.888708         1.057934
 H         2.158000        -2.073230        -0.745646
 H         5.135837        -1.022872         0.270027
 H         5.181733         0.694356         0.289235
 H         2.565851        -0.851490         2.613001
 H         3.074131         0.774782         3.280860
 H         2.491428         1.581459         0.994360
