19
Iteration:  3070
 C        -0.059227         0.102615        -0.170197
 C         1.337071        -0.121408         0.110236
 C         2.214063        -1.412403         0.106980
 C         3.213120        -0.130020         0.087235
 C         4.646894        -0.059473         0.492353
 O         4.505045        -0.029887         1.954147
 C         3.128731         0.042668         2.477044
 C         2.342123         0.589974         1.220981
 O         2.287141         0.530677        -0.854736
 H        -0.639640         0.232209         0.721731
 H        -0.168983         1.066568        -0.669192
 H        -0.331606        -0.713316        -0.764431
 H         2.053158        -1.999826         1.052015
 H         2.249462        -2.002518        -0.890083
 H         5.139036        -1.075539         0.267142
 H         5.299993         0.666165         0.057808
 H         2.779155        -0.946421         2.833802
 H         3.251108         0.800581         3.280301
 H         2.244485         1.656108         1.180073
