19
Iteration:  3226charge 0 multiplicity 1
 C        -0.010030         0.006164        -0.117462
 C         1.361126        -0.073333         0.261246
 C         2.233412        -1.341084         0.191182
 C         3.205319        -0.037546         0.075813
 C         4.599169        -0.069511         0.489818
 O         4.528957        -0.214728         1.983962
 C         3.067784         0.149006         2.440876
 C         2.322398         0.694097         1.165800
 O         2.317583         0.472105        -0.999287
 H        -0.573646        -0.877253         0.158380
 H        -0.475187         0.928368         0.188555
 H        -0.114984        -0.080560        -1.177311
 H         2.080257        -2.165029         1.058641
 H         2.280652        -1.878234        -0.765822
 H         5.172406        -0.981226        -0.013955
 H         5.049924         0.967136         0.251745
 H         2.591955        -0.816995         2.812707
 H         3.279364         0.888219         3.284987
 H         2.242182         1.799766         0.916118
