19
Iteration:  1860
 C        -0.096546         0.190304         0.014304
 C         1.416398        -0.112948         0.025198
 C         2.267791        -1.459762         0.054047
 C         3.166356        -0.165334         0.094392
 C         4.660142        -0.100148         0.517519
 O         4.487022         0.158604         2.041818
 C         3.073508         0.013963         2.418362
 C         2.333858         0.503666         1.178076
 O         2.333303         0.461734        -0.984571
 H        -0.470776        -0.752291         0.536588
 H        -0.253163         1.075694         0.559255
 H        -0.528420         0.439358        -0.922904
 H         2.121173        -2.101595         0.926622
 H         2.216658        -2.092467        -0.836959
 H         5.248096        -1.075184         0.501277
 H         5.247469         0.784517         0.157872
 H         2.830048        -1.144946         2.762530
 H         2.766604         0.711750         3.278515
 H         2.266954         1.636159         1.046541
