19
Iteration:  2556
 C        -0.069246         0.047805         0.050934
 C         1.423754        -0.079669         0.075878
 C         2.321421        -1.308173         0.113155
 C         3.221517        -0.135940         0.071919
 C         4.651480         0.030257         0.604180
 O         4.360485        -0.326378         1.982336
 C         3.022933         0.208705         2.404256
 C         2.431081         0.618357         1.089738
 O         2.344805         0.461466        -1.008961
 H        -0.295004        -0.667367         0.946303
 H        -0.262560         1.061073         0.393076
 H        -0.698753        -0.228345        -0.868663
 H         2.293500        -1.864625         1.020792
 H         2.206385        -1.847624        -0.819877
 H         5.286796        -0.687062         0.220243
 H         4.763605         1.119286         0.307449
 H         2.394604        -0.559897         2.960285
 H         3.045908         1.091106         3.056223
 H         2.374165         1.670700         0.835981
