19
Iteration:  1285
 C        -0.198982        -0.051240        -0.050480
 C         1.392855        -0.046499         0.089401
 C         2.262804        -1.282854         0.095855
 C         3.187622        -0.136509         0.079020
 C         4.622887        -0.109683         0.515625
 O         4.477368        -0.083662         2.043701
 C         3.113091         0.092989         2.410589
 C         2.324303         0.594615         1.166814
 O         2.434134         0.582419        -0.963164
 H        -0.694350        -0.853027         0.618195
 H        -0.437053         0.937664         0.133268
 H        -0.445293        -0.353207        -1.057113
 H         2.103455        -1.895237         1.015718
 H         2.212363        -2.013785        -0.713975
 H         5.265643        -0.990262         0.294118
 H         5.029388         0.868605         0.143717
 H         2.809370        -0.999060         2.730955
 H         3.163863         0.728104         3.323467
 H         2.383263         1.704205         1.092599
