19
Iteration:  2222charge 0 multiplicity 1
 C        -0.054685         0.015373         0.028765
 C         1.393067        -0.053412         0.027678
 C         2.266803        -1.323480         0.051053
 C         3.200389        -0.228595         0.059354
 C         4.760821        -0.241764         0.629384
 O         4.431434         0.103632         2.038592
 C         3.055994         0.082138         2.401610
 C         2.375926         0.593810         1.138390
 O         2.272640         0.562537        -0.995679
 H        -0.389397         0.096596         1.058349
 H        -0.590807         0.821036        -0.414859
 H        -0.457680        -0.986534        -0.331717
 H         2.059062        -1.940638         0.959050
 H         2.327369        -1.940271        -0.906653
 H         5.230256        -1.174034         0.483203
 H         5.381336         0.546642         0.130738
 H         2.553106        -0.823428         2.641524
 H         2.788351         0.733120         3.204070
 H         2.281453         1.726897         1.004028
