19
Iteration:   555
 C        -0.140479         0.110412        -0.170387
 C         1.360127        -0.117783         0.052577
 C         2.229667        -1.452486        -0.056163
 C         3.188086        -0.215375         0.198072
 C         4.631393        -0.174636         0.527744
 O         4.459770         0.277982         1.918321
 C         3.172657         0.015437         2.497275
 C         2.387780         0.389177         1.248903
 O         2.340187         0.625543        -0.802544
 H        -0.678224        -0.451635         0.678015
 H        -0.432847         1.096701         0.022825
 H        -0.423877        -0.244141        -1.163450
 H         2.132308        -2.172654         0.766214
 H         2.283955        -1.845519        -1.103067
 H         5.122992        -1.229033         0.537383
 H         5.263938         0.553257         0.088837
 H         3.058095        -1.074306         2.856583
 H         3.069726         0.654632         3.300802
 H         2.279850         1.452071         1.142335
