19
Iteration:  4435charge 0 multiplicity 1
 C         0.010096        -0.005703        -0.045853
 C         1.427897        -0.117438         0.144461
 C         2.336541        -1.282003        -0.028417
 C         3.172767         0.084532         0.111245
 C         4.621621         0.098818         0.575287
 O         4.406573        -0.359351         1.916722
 C         3.073978        -0.110072         2.476648
 C         2.256921         0.511862         1.270523
 O         2.293194         0.709634        -1.017399
 H        -0.276519         1.019040         0.029766
 H        -0.355343        -0.270026        -1.016259
 H        -0.395779        -0.685471         0.770572
 H         2.518208        -2.044208         0.890215
 H         2.608599        -1.610471        -1.027051
 H         5.181510        -0.733195         0.116940
 H         5.157130         0.993076         0.638072
 H         2.704379        -1.017602         3.024011
 H         3.145096         0.875327         3.065210
 H         2.137808         1.544177         1.617649
