19
Iteration:  3310
 C        -0.090147         0.152225         0.025723
 C         1.432999        -0.074864         0.193192
 C         2.251664        -1.382863         0.074209
 C         3.217453        -0.177309         0.032227
 C         4.691596        -0.013846         0.531453
 O         4.424025         0.059699         2.011721
 C         2.963617         0.021187         2.343804
 C         2.393801         0.475468         1.153766
 O         2.343804         0.438407        -0.959679
 H        -0.564052         0.331362         1.020847
 H        -0.290925         1.114453        -0.668437
 H        -0.514206        -0.644170        -0.584449
 H         2.428268        -1.947944         0.950781
 H         2.137593        -1.971407        -0.822950
 H         5.230101        -0.976806         0.339579
 H         5.115572         0.829171         0.056960
 H         2.740263        -1.049287         2.767434
 H         3.073782         0.646804         3.211626
 H         2.451135         1.536901         1.195267
