19
Iteration:  1885
 C        -0.078781         0.182088         0.016491
 C         1.407013        -0.139371         0.236360
 C         2.311114        -1.403861         0.000525
 C         3.190069        -0.151011         0.054456
 C         4.647465        -0.179413         0.636395
 O         4.446030         0.260957         1.997401
 C         3.058826        -0.067680         2.354090
 C         2.403896         0.548800         1.142579
 O         2.261013         0.423378        -1.003216
 H        -0.745495        -0.709925         0.219417
 H        -0.299879         1.130870         0.495820
 H        -0.092916         0.563204        -1.015960
 H         2.194691        -2.146824         0.778005
 H         2.127510        -1.819186        -0.979395
 H         5.188667        -1.201158         0.843903
 H         5.250010         0.601500         0.114882
 H         3.005096        -1.187424         2.569689
 H         2.758933         0.583139         3.213001
 H         2.448946         1.606465         1.114668
