19
Iteration:  3285charge 0 multiplicity 1
 C        -0.050022         0.123031        -0.075903
 C         1.411265        -0.121315         0.101506
 C         2.203782        -1.422033         0.109164
 C         3.146359        -0.189320         0.133365
 C         4.557598         0.031445         0.540955
 O         4.524945        -0.034263         2.018245
 C         3.080480         0.080534         2.404580
 C         2.360462         0.568925         1.182071
 O         2.352215         0.444930        -0.972208
 H        -0.370436         0.175933         0.971093
 H        -0.184313         1.159967        -0.423573
 H        -0.662538        -0.546525        -0.752150
 H         2.113510        -2.171808         0.904365
 H         2.359280        -1.777261        -0.945645
 H         5.158385        -0.694235         0.105449
 H         4.870479         1.033212         0.105019
 H         2.768748        -1.037328         2.744250
 H         3.323161         0.602211         3.328704
 H         2.495823         1.663594         1.031571
