19
Iteration:   371
 C        -0.064504         0.026930        -0.094849
 C         1.394902        -0.116526         0.140729
 C         2.199263        -1.384911         0.080836
 C         3.200653        -0.121998         0.049456
 C         4.582493         0.038389         0.577862
 O         4.498439        -0.092813         2.041033
 C         3.130899         0.028948         2.409638
 C         2.420867         0.604462         1.194179
 O         2.280241         0.534851        -0.984436
 H        -0.695026        -0.531600         0.656572
 H        -0.376573         1.000839        -0.203234
 H        -0.196328        -0.491858        -1.032720
 H         2.248084        -1.868414         1.074037
 H         2.246819        -2.117639        -0.781736
 H         5.208510        -0.776131         0.269903
 H         4.926095         1.095017         0.335527
 H         2.722930        -0.938557         2.840834
 H         3.080654         0.853942         3.193831
 H         2.427349         1.636200         0.999894
