19
Iteration:  4556charge 0 multiplicity 1
 C        -0.091855         0.070549        -0.106961
 C         1.374204        -0.054048         0.150055
 C         2.252796        -1.249759        -0.133897
 C         3.180360        -0.089001        -0.011303
 C         4.615903         0.074316         0.603338
 O         4.525135        -0.035913         2.102479
 C         3.158460        -0.255183         2.460316
 C         2.379597         0.419536         1.239543
 O         2.246743         0.618468        -0.907315
 H        -0.376674         1.064901         0.126861
 H        -0.272032        -0.021368        -1.193135
 H        -0.659450        -0.566564         0.626305
 H         2.228375        -2.016783         0.661287
 H         2.216230        -1.634846        -1.143618
 H         5.200800        -0.826217         0.288257
 H         5.035190         1.026090         0.247764
 H         2.943076        -1.381200         2.456463
 H         3.070031         0.339432         3.492077
 H         2.256606         1.541156         1.459107
