19
Iteration:  2487charge 0 multiplicity 1
 C        -0.031661         0.043225        -0.100524
 C         1.385100        -0.102892         0.126618
 C         2.183979        -1.320622         0.168944
 C         3.165721        -0.133382         0.103716
 C         4.594533        -0.124693         0.524155
 O         4.498546        -0.009542         1.936315
 C         3.065025         0.069868         2.422811
 C         2.275344         0.564351         1.212611
 O         2.421014         0.530775        -0.989515
 H        -0.397058        -0.528547         0.737975
 H        -0.239805         1.154119        -0.015911
 H        -0.348667        -0.367414        -1.008174
 H         2.308542        -1.832356         1.150712
 H         2.121982        -1.952354        -0.745159
 H         5.186469        -1.103560         0.309620
 H         5.001243         0.817895         0.193794
 H         2.833467        -0.963932         2.946860
 H         3.178820         0.699550         3.276641
 H         2.410664         1.627931         1.052070
