19
Iteration:   237charge 0 multiplicity 1
 C        -0.123343        -0.014155        -0.067598
 C         1.417326        -0.152986         0.089201
 C         2.356356        -1.393606        -0.019108
 C         3.186431        -0.097683         0.136729
 C         4.613381        -0.123089         0.520140
 O         4.476470        -0.140061         1.998671
 C         3.071283         0.218672         2.469519
 C         2.343602         0.557825         1.169290
 O         2.288020         0.650555        -0.882435
 H        -0.679581        -0.275141         0.892839
 H        -0.314609         0.939393        -0.471847
 H        -0.414799        -0.711155        -0.815367
 H         2.554421        -2.137807         0.829857
 H         2.401843        -1.975767        -0.957667
 H         5.077671        -1.064802         0.167408
 H         5.026367         0.836961         0.224561
 H         2.616842        -0.622293         3.109509
 H         3.158826         1.100878         3.090028
 H         2.385233         1.641969         1.048036
