19
Iteration:  3424charge 0 multiplicity 1
 C        -0.128035         0.191575        -0.163020
 C         1.342815        -0.122079         0.107580
 C         2.257573        -1.443234         0.264844
 C         3.200547        -0.126267         0.126366
 C         4.576137        -0.001858         0.559902
 O         4.536347        -0.057322         1.963048
 C         3.161856         0.065825         2.436244
 C         2.340133         0.642530         1.159164
 O         2.334181         0.381692        -1.001911
 H        -0.740812        -0.727607        -0.001146
 H        -0.483645         0.919679         0.499768
 H        -0.318838         0.486966        -1.251659
 H         2.574318        -2.001955         1.156206
 H         2.128803        -2.126829        -0.603154
 H         5.215680        -0.827265         0.183871
 H         4.983317         0.927383         0.158140
 H         2.707361        -1.028082         2.733221
 H         3.095417         0.754366         3.286923
 H         2.326005         1.789608         1.118459
