19
Iteration:  4268charge 0 multiplicity 1
 C        -0.069910         0.077789        -0.105403
 C         1.408085        -0.103208         0.195058
 C         2.303176        -1.296270        -0.083114
 C         3.143140        -0.040722         0.056258
 C         4.594456         0.007596         0.577848
 O         4.464480        -0.031232         2.049129
 C         3.092201        -0.208132         2.404657
 C         2.322827         0.474208         1.262128
 O         2.352099         0.648981        -0.935577
 H        -0.531123         0.859711         0.512432
 H        -0.323859         0.225011        -1.114731
 H        -0.367970        -0.859036         0.174479
 H         2.328557        -2.097066         0.682209
 H         2.153900        -1.549346        -1.175833
 H         4.988886        -0.941678         0.130995
 H         5.105714         0.884042         0.334460
 H         2.918661        -1.265897         2.486760
 H         3.142115         0.266577         3.452891
 H         2.417277         1.505010         1.565994
