19
Iteration:  4711charge 0 multiplicity 1
 C        -0.061149         0.031565        -0.048311
 C         1.490429        -0.072384         0.073889
 C         2.409824        -1.305208        -0.010835
 C         3.163217         0.039215         0.100637
 C         4.626737         0.190131         0.542300
 O         4.419253        -0.400211         1.981419
 C         3.089974        -0.141065         2.434282
 C         2.339360         0.499102         1.245436
 O         2.205490         0.686732        -0.909520
 H        -0.279482         1.088015        -0.465446
 H        -0.587515        -0.693370        -0.712903
 H        -0.557933        -0.276332         0.863211
 H         2.507414        -1.895793         0.839708
 H         2.517522        -1.739166        -1.053030
 H         5.298227        -0.587722         0.010246
 H         5.073029         1.212277         0.425565
 H         2.607688        -1.030257         2.945334
 H         2.917351         0.700062         3.175569
 H         2.230123         1.573869         1.325502
