19
Iteration:  3005
 C        -0.000988         0.154003         0.056278
 C         1.482551        -0.018180         0.106199
 C         2.227350        -1.364903         0.143095
 C         3.205843        -0.258685         0.057411
 C         4.609462        -0.051694         0.543702
 O         4.444782         0.020500         2.033487
 C         3.002648        -0.020423         2.399555
 C         2.413240         0.601665         1.120874
 O         2.267842         0.435950        -1.047924
 H        -0.538950        -0.684948         0.459354
 H        -0.559252         1.025349         0.513604
 H        -0.250495         0.239096        -0.955036
 H         2.203799        -1.997404         1.062104
 H         2.324993        -1.915295        -0.857658
 H         5.313390        -0.817220         0.403557
 H         5.056595         0.816657         0.208921
 H         2.791739        -1.113816         2.730028
 H         2.902585         0.789339         3.155039
 H         2.496552         1.690602         0.935213
