19
Iteration:  3297
 C        -0.031686         0.169576         0.001735
 C         1.406249        -0.086924         0.121964
 C         2.260478        -1.432666         0.069300
 C         3.217744        -0.203665         0.127805
 C         4.620571        -0.024332         0.504893
 O         4.423126         0.017116         1.925892
 C         3.088185         0.022117         2.463493
 C         2.348670         0.614175         1.161949
 O         2.350919         0.427913        -0.930590
 H        -0.618159         0.137289         0.936136
 H        -0.218624         1.150514        -0.591135
 H        -0.478891        -0.723666        -0.534402
 H         2.107677        -2.187733         0.808002
 H         2.141770        -1.927865        -0.940665
 H         5.428586        -0.690329         0.371049
 H         4.973720         0.994564         0.275351
 H         2.636774        -1.107369         2.652353
 H         2.777427         0.682972         3.268984
 H         2.371975         1.688706         0.968574
