19
Iteration:   578charge 0 multiplicity 1
 C        -0.011480         0.142021        -0.060811
 C         1.438981        -0.182672         0.114164
 C         2.232748        -1.428693        -0.171507
 C         3.177121        -0.214577         0.072591
 C         4.525399        -0.160265         0.596949
 O         4.558514         0.275764         1.988227
 C         3.129267         0.079344         2.482097
 C         2.247609         0.370219         1.323392
 O         2.319008         0.546024        -0.897012
 H        -0.603153        -0.137693         0.781085
 H        -0.070804         1.253129        -0.048955
 H        -0.320379        -0.271610        -1.057459
 H         2.286566        -2.235474         0.573385
 H         2.079072        -1.710456        -1.234912
 H         4.976736        -1.205282         0.433547
 H         5.036710         0.574516         0.071498
 H         3.066888        -0.989551         2.755944
 H         2.997820         0.687420         3.381846
 H         2.062751         1.468485         1.159060
