19
Iteration:  2779charge 0 multiplicity 1
 C        -0.084811         0.067622        -0.237264
 C         1.361118        -0.038438         0.127536
 C         2.227928        -1.289625         0.215435
 C         3.199366        -0.113436         0.051966
 C         4.647589        -0.043886         0.554149
 O         4.553729        -0.071120         2.003205
 C         3.174272         0.044446         2.429031
 C         2.389974         0.497194         1.225121
 O         2.175828         0.470189        -0.956555
 H        -0.705556        -0.762780        -0.039715
 H        -0.614246         1.022144         0.179699
 H        -0.209356         0.237969        -1.276811
 H         2.219701        -1.802508         1.111884
 H         2.097138        -2.030203        -0.581234
 H         5.135356        -0.927314         0.225791
 H         5.244233         0.800186         0.190156
 H         2.838019        -0.986976         3.003635
 H         3.208801         0.827420         3.244883
 H         2.552061         1.587035         1.355740
