19
Iteration:  1164
 C        -0.105367        -0.000925        -0.214424
 C         1.422398        -0.082156         0.050187
 C         2.274036        -1.304843         0.178567
 C         3.179983        -0.053653         0.124844
 C         4.688547        -0.028626         0.557509
 O         4.504960        -0.143281         2.003184
 C         3.104026         0.039233         2.400583
 C         2.424392         0.597175         1.238089
 O         2.204275         0.528243        -0.931001
 H        -0.708300        -0.039947         0.849764
 H        -0.478366         0.971056        -0.586075
 H        -0.596852        -0.789287        -0.876257
 H         2.210114        -1.945802         1.089531
 H         2.237428        -1.840956        -0.796934
 H         5.254043        -0.908156         0.086045
 H         5.160560         0.955416         0.317789
 H         2.683031        -1.075277         2.704788
 H         3.055222         0.671579         3.333986
 H         2.407001         1.685895         1.250930
