19
Iteration:  2412charge 0 multiplicity 1
 C        -0.089705         0.166732        -0.082467
 C         1.391668        -0.137934         0.137575
 C         2.287287        -1.437907         0.133834
 C         3.188084        -0.201136         0.123264
 C         4.604892        -0.077152         0.479733
 O         4.441561         0.124195         1.917663
 C         3.052558        -0.019516         2.420487
 C         2.300674         0.487618         1.215710
 O         2.420584         0.503251        -0.953293
 H        -0.525040         0.416823         0.974752
 H         0.095557         1.328993        -0.364507
 H        -0.716012        -0.409347        -0.816098
 H         2.188497        -1.995776         1.083477
 H         2.129140        -2.126931        -0.696616
 H         5.283868        -0.916799         0.417318
 H         5.107895         0.895032         0.054408
 H         2.822759        -0.997037         2.924293
 H         3.090376         0.692325         3.181088
 H         2.329147         1.541839         1.221237
