19
Iteration:  1266
 C         0.029311        -0.048887        -0.005558
 C         1.462268         0.032915         0.140761
 C         2.237608        -1.329947         0.113640
 C         3.187470        -0.082813         0.104910
 C         4.659930        -0.035272         0.571729
 O         4.415644        -0.152870         1.968067
 C         2.943048         0.091989         2.384927
 C         2.466988         0.640030         1.144938
 O         2.278769         0.483171        -0.988217
 H        -0.238210        -0.924438         0.546100
 H        -0.726775         0.834450         0.311125
 H        -0.241496        -0.333162        -1.040149
 H         2.259955        -2.087504         0.941363
 H         2.030601        -1.807997        -0.868940
 H         5.161478        -0.887006         0.164210
 H         5.154047         0.911002         0.219475
 H         2.406471        -0.905055         2.663191
 H         3.130522         0.770896         3.248233
 H         2.539148         1.767821         1.224774
