19
Iteration:  3478charge 0 multiplicity 1
 C        -0.153807         0.091996         0.006796
 C         1.341940        -0.114426         0.101407
 C         2.323588        -1.334250         0.104591
 C         3.212627        -0.129265         0.123056
 C         4.617537        -0.052832         0.607257
 O         4.525966        -0.239951         2.055365
 C         3.126057         0.257414         2.389522
 C         2.305151         0.629048         1.057529
 O         2.325629         0.420638        -1.049637
 H        -0.535517        -0.871736         0.480866
 H        -0.571841         0.832170         0.637983
 H        -0.477418         0.349853        -1.095277
 H         2.218445        -1.961189         0.964468
 H         2.454388        -1.988146        -0.779235
 H         5.259164        -0.883236         0.280719
 H         4.928781         0.892786         0.307667
 H         2.624917        -0.494867         3.081888
 H         3.085876         1.164237         2.953665
 H         2.538394         1.724617         0.942653
