19
Iteration:  2027
 C         0.000846        -0.053959         0.155250
 C         1.410902        -0.112390         0.096816
 C         2.305783        -1.329429         0.091094
 C         3.233604        -0.064029        -0.003967
 C         4.634629         0.043465         0.662021
 O         4.374099        -0.338248         1.967448
 C         2.953062         0.201955         2.406557
 C         2.444987         0.624982         1.088846
 O         2.328450         0.556342        -1.076493
 H        -0.365387         0.021655         1.118860
 H        -0.479568         0.771717        -0.416022
 H        -0.626105        -0.834185        -0.314560
 H         2.348047        -1.951237         0.965314
 H         2.192159        -1.978914        -0.783229
 H         5.491116        -0.588200         0.451579
 H         4.810277         1.114153         0.594174
 H         2.484541        -0.755821         2.893800
 H         3.022888         1.149277         2.940855
 H         2.502113         1.664257         0.877887
