19
Iteration:  2326charge 0 multiplicity 1
 C        -0.038933         0.062114        -0.033847
 C         1.387518        -0.144048         0.212787
 C         2.288377        -1.341721         0.135750
 C         3.196639        -0.042350         0.165620
 C         4.654702        -0.069533         0.515212
 O         4.385300        -0.168335         1.958071
 C         3.084958         0.213750         2.434523
 C         2.323299         0.619176         1.130672
 O         2.387366         0.397624        -1.023397
 H        -0.600384        -0.862528         0.342265
 H        -0.460767         1.052223         0.235195
 H        -0.165392         0.084243        -1.102779
 H         2.189491        -1.949148         1.009111
 H         2.352153        -1.898390        -0.782011
 H         5.082510        -0.966706         0.121117
 H         5.012978         0.940407         0.076932
 H         2.595678        -0.548751         2.989377
 H         3.143928         1.105245         3.039877
 H         2.156597         1.635766         0.941796
