19
Iteration:  4659charge 0 multiplicity 1
 C        -0.062882         0.012859        -0.039563
 C         1.467290        -0.054512         0.100028
 C         2.288418        -1.246038        -0.075501
 C         3.161204        -0.039345        -0.004750
 C         4.593129         0.058501         0.580302
 O         4.457833        -0.152810         2.009625
 C         3.064292        -0.247396         2.481009
 C         2.360756         0.423922         1.241778
 O         2.313752         0.753121        -0.908049
 H        -0.398714         0.811897        -0.754323
 H        -0.337402        -0.992373        -0.339974
 H        -0.550253         0.251424         0.925931
 H         2.261858        -1.847222         0.872911
 H         2.256427        -1.738716        -1.154881
 H         5.325046        -0.572820         0.146548
 H         4.866358         1.076113         0.429627
 H         2.871551        -1.388276         2.743228
 H         2.817646         0.243357         3.388885
 H         2.501661         1.499701         1.269313
