19
Iteration:  4344
 C        -0.145375         0.131167        -0.100641
 C         1.416828        -0.119068         0.178543
 C         2.342076        -1.330663        -0.125356
 C         3.188505        -0.013049         0.088377
 C         4.701423         0.088913         0.573798
 O         4.465679        -0.120048         2.008745
 C         3.040791        -0.203343         2.360415
 C         2.288768         0.422021         1.243014
 O         2.303656         0.641941        -0.801615
 H        -0.290698         1.113319        -0.716218
 H        -0.576485        -0.718616        -0.674807
 H        -0.686477         0.320467         0.809085
 H         2.620280        -1.991595         0.712216
 H         2.463021        -1.768361        -1.168826
 H         5.312947        -0.802027         0.241593
 H         5.112779         1.001918         0.336534
 H         2.836708        -1.298252         2.408940
 H         3.012329         0.398996         3.380804
 H         2.312458         1.521857         1.298827
