19
Iteration:  4533charge 0 multiplicity 1
 C        -0.058083         0.086769        -0.058664
 C         1.418151        -0.097995         0.088549
 C         2.325911        -1.427281        -0.040442
 C         3.177444        -0.015185         0.124711
 C         4.663359         0.037131         0.529131
 O         4.459026        -0.100013         1.940401
 C         3.026303        -0.169903         2.421956
 C         2.316445         0.437310         1.241259
 O         2.295060         0.738236        -0.838603
 H        -0.459906         0.899725         0.495383
 H        -0.228226         0.330409        -1.113086
 H        -0.568419        -0.857958         0.316165
 H         2.270154        -2.133558         0.783664
 H         2.495578        -1.851010        -0.938225
 H         5.287994        -0.839742         0.168941
 H         5.003428         1.017063         0.137490
 H         2.722197        -1.234560         2.591503
 H         3.133615         0.530440         3.362720
 H         2.267404         1.561429         1.442767
