19
Iteration:   305
 C        -0.042473         0.207890        -0.066957
 C         1.395320        -0.086201         0.116981
 C         2.191400        -1.429122         0.080152
 C         3.174104        -0.192516         0.113324
 C         4.693603        -0.016994         0.570822
 O         4.435461         0.288521         1.937960
 C         3.094040        -0.171027         2.427740
 C         2.371116         0.418065         1.217177
 O         2.327172         0.446663        -0.967667
 H        -0.794888        -0.569628         0.344004
 H        -0.286301         1.163030         0.177742
 H        -0.219479         0.124453        -1.099003
 H         2.114110        -2.066533         0.934936
 H         2.058028        -2.051470        -0.836917
 H         5.263283        -0.903148         0.590087
 H         5.105405         0.882554         0.076797
 H         3.103624        -1.241561         2.760430
 H         2.944377         0.519064         3.258847
 H         2.409663         1.465256         1.307773
