19
Iteration:  3189charge 0 multiplicity 1
 C        -0.114874         0.010659         0.009448
 C         1.418980        -0.072448         0.046780
 C         2.295717        -1.362691         0.180308
 C         3.173846        -0.134310         0.129737
 C         4.627299        -0.001853         0.505728
 O         4.474665        -0.281569         2.017675
 C         3.031661         0.183220         2.441599
 C         2.390214         0.648370         1.085903
 O         2.328058         0.542873        -1.030198
 H        -0.490096        -0.809305         0.647512
 H        -0.451819         0.909673         0.646014
 H        -0.500994        -0.019945        -1.047503
 H         2.264247        -1.889822         1.141994
 H         2.426192        -1.926147        -0.799110
 H         5.416475        -0.853904         0.299353
 H         5.093063         0.936428         0.149403
 H         2.484349        -0.620024         2.804057
 H         3.101585         0.977109         3.150021
 H         2.365123         1.695215         0.962022
