19
Iteration:  4682
 C        -0.174446        -0.004823        -0.042228
 C         1.413591        -0.138996         0.216151
 C         2.316289        -1.307331        -0.101183
 C         3.171773         0.021519         0.096739
 C         4.675938         0.150463         0.563080
 O         4.479038        -0.282227         1.963740
 C         3.050710        -0.150111         2.388299
 C         2.278749         0.520409         1.264193
 O         2.416029         0.708283        -0.908449
 H        -0.307075         0.909392        -0.612049
 H        -0.547387        -0.906545        -0.518569
 H        -0.710911         0.278837         0.902051
 H         2.400839        -2.158151         0.667766
 H         2.273626        -1.515348        -1.235981
 H         5.276547        -0.610320         0.166686
 H         5.132952         1.125681         0.436138
 H         2.637947        -1.209387         2.689238
 H         2.911729         0.395748         3.290306
 H         2.249340         1.616893         1.263938
