19
Iteration:  3240
 C        -0.065389         0.063883        -0.179873
 C         1.420923        -0.110939         0.151285
 C         2.291801        -1.349243         0.164114
 C         3.124298        -0.117176         0.143144
 C         4.571577        -0.039838         0.489009
 O         4.507452        -0.174226         1.954513
 C         3.100246         0.155477         2.403490
 C         2.419542         0.655758         1.196028
 O         2.252989         0.448949        -0.881608
 H        -0.659679        -0.652753         0.411267
 H        -0.417100         1.040977        -0.032035
 H        -0.047743        -0.027543        -1.320889
 H         2.373648        -1.930707         1.117716
 H         2.195194        -1.974294        -0.732650
 H         5.181872        -0.814263         0.099467
 H         5.033753         0.951431         0.265060
 H         2.633253        -0.900717         2.824004
 H         3.115454         0.863776         3.290541
 H         2.492121         1.785560         1.060206
