19
Iteration:   156charge 0 multiplicity 1
 C        -0.060064         0.034665        -0.028350
 C         1.376100        -0.134847         0.179637
 C         2.359711        -1.338045         0.018361
 C         3.219123        -0.054818         0.033418
 C         4.627166         0.034777         0.562326
 O         4.379290        -0.222249         1.974303
 C         3.095543         0.194236         2.479142
 C         2.347326         0.539669         1.220983
 O         2.304978         0.460574        -0.994992
 H        -0.639902        -0.439082         0.568721
 H        -0.396897         1.117314         0.116076
 H        -0.353258        -0.398367        -1.045783
 H         2.376243        -1.997994         0.889606
 H         2.366842        -1.833651        -0.999738
 H         5.288406        -0.762453         0.233154
 H         5.169283         0.891620         0.261043
 H         2.661402        -0.627442         3.008676
 H         3.155680         1.087081         3.193708
 H         2.267759         1.671107         1.071292
