19
Iteration:  2576charge 0 multiplicity 1
 C        -0.085799         0.104480         0.022676
 C         1.390669        -0.102915         0.219661
 C         2.297369        -1.444680         0.153087
 C         3.181445        -0.023994         0.091928
 C         4.654207         0.078569         0.569348
 O         4.384809        -0.323738         1.907442
 C         3.079868         0.140702         2.392963
 C         2.251063         0.687565         1.164176
 O         2.484101         0.435738        -1.064554
 H        -0.769324        -0.172973         0.852472
 H        -0.424159         1.119721        -0.088545
 H        -0.324464        -0.513627        -0.814583
 H         2.339810        -2.150799         0.987416
 H         2.325950        -1.981283        -0.838881
 H         5.299560        -0.686166         0.126499
 H         4.918718         1.124916         0.470627
 H         2.454029        -0.632022         3.001968
 H         3.184717         0.930450         3.066557
 H         2.296371         1.719801         0.931302
