19
Iteration:  3429
 C        -0.097404         0.167107        -0.138833
 C         1.405054        -0.112224         0.135562
 C         2.236695        -1.433320         0.268078
 C         3.162299        -0.152507         0.114035
 C         4.565300        -0.011847         0.553173
 O         4.546580        -0.058776         1.982166
 C         3.125941         0.066576         2.385575
 C         2.344598         0.606764         1.124915
 O         2.338757         0.407365        -1.000559
 H        -0.677509        -0.715604         0.057116
 H        -0.638329         1.005190         0.469603
 H        -0.096622         0.562564        -1.117188
 H         2.624143        -1.983964         1.140496
 H         2.096000        -2.115936        -0.593460
 H         5.162404        -0.824909         0.153345
 H         4.900866         1.072404         0.288334
 H         2.707869        -0.771077         2.789923
 H         3.067830         0.801322         3.203847
 H         2.207673         1.656746         1.142507
