19
Iteration:   456
 C        -0.063479         0.055323        -0.004565
 C         1.446427        -0.108096         0.055232
 C         2.361047        -1.370735         0.018067
 C         3.263300        -0.104230         0.171532
 C         4.644143         0.159492         0.655162
 O         4.370015        -0.399487         1.945704
 C         3.073558         0.268635         2.481408
 C         2.333356         0.532070         1.136880
 O         2.214761         0.483549        -1.033541
 H        -0.503648        -0.323909         1.040375
 H        -0.460173         0.996441        -0.142127
 H        -0.427353        -0.586102        -0.779713
 H         2.442228        -2.176515         0.800040
 H         2.367126        -1.629234        -1.066525
 H         5.500895        -0.336332         0.178191
 H         4.973239         1.117700         0.615992
 H         2.805362        -0.488680         3.264370
 H         3.317447         1.136490         2.932698
 H         2.346214         1.578238         0.944950
