19
Iteration:  1710charge 0 multiplicity 1
 C        -0.104478         0.038162         0.016845
 C         1.424600        -0.090832         0.061055
 C         2.378599        -1.326034         0.122847
 C         3.240944         0.000812         0.038156
 C         4.684949        -0.044070         0.624490
 O         4.434648        -0.229859         2.015942
 C         2.999477         0.118568         2.372469
 C         2.312875         0.608514         1.140755
 O         2.268163         0.496506        -1.024214
 H        -0.537913        -0.382697         1.085959
 H        -0.299007         1.091187        -0.009976
 H        -0.353992        -0.665701        -0.809107
 H         2.375769        -1.995503         1.023402
 H         2.361119        -2.004863        -0.782101
 H         5.461115        -0.823265         0.179133
 H         5.124903         0.883348         0.323643
 H         2.673496        -0.862478         2.849802
 H         3.026392         0.916475         3.185912
 H         2.102271         1.750736         1.112317
