19
Iteration:   494charge 0 multiplicity 1
 C        -0.081677         0.084188        -0.098169
 C         1.359773        -0.106832         0.198969
 C         2.322603        -1.368656         0.118324
 C         3.216676        -0.155307         0.145656
 C         4.666275         0.056756         0.520421
 O         4.471806        -0.076239         1.932828
 C         2.995811        -0.009428         2.435679
 C         2.303667         0.515649         1.166012
 O         2.356669         0.537978        -0.957700
 H        -0.564141        -0.555052         0.533011
 H        -0.341995         1.231080         0.063677
 H        -0.401957        -0.221608        -1.150205
 H         2.501577        -2.013685         0.980852
 H         2.305410        -2.069468        -0.699014
 H         5.235267        -0.796710         0.094721
 H         5.104902         1.081072         0.098990
 H         2.655225        -0.937847         2.832049
 H         3.003548         0.876610         3.248888
 H         2.274732         1.656847         1.105465
