19
Iteration:   958charge 0 multiplicity 1
 C        -0.105865        -0.010834         0.012771
 C         1.419946        -0.169145         0.146969
 C         2.446964        -1.245350         0.108184
 C         3.179946         0.047411         0.027054
 C         4.602599         0.073957         0.629313
 O         4.358265        -0.443018         1.920234
 C         3.080205         0.105021         2.396645
 C         2.316074         0.655151         1.132875
 O         2.357621         0.527526        -1.013290
 H        -0.428651        -0.021205         1.099567
 H        -0.207824         0.967483        -0.326050
 H        -0.728173        -0.710911        -0.618869
 H         2.826354        -1.774650         1.106444
 H         2.173467        -1.990557        -0.677476
 H         5.308488        -0.596522         0.162634
 H         5.037050         1.125083         0.734783
 H         2.412311        -0.697529         2.898268
 H         3.295908         0.972453         3.017042
 H         2.003079         1.724330         1.188627
