19
Iteration:  3025
 C        -0.123558         0.138861        -0.006693
 C         1.378812        -0.132943         0.131532
 C         2.153802        -1.410664         0.073727
 C         3.239310        -0.138975         0.062340
 C         4.708113        -0.058281         0.573165
 O         4.476295         0.020507         1.995738
 C         3.007595         0.102197         2.366409
 C         2.435255         0.518014         1.156075
 O         2.365608         0.464524        -0.939384
 H        -0.702897        -0.405883         0.742814
 H        -0.328439         1.094167         0.371361
 H        -0.526153        -0.002493        -1.010440
 H         2.176299        -2.032801         1.013243
 H         1.947256        -1.948217        -0.908285
 H         5.439739        -0.914226         0.321832
 H         5.258631         0.821353         0.262234
 H         2.796270        -0.951813         2.446690
 H         2.905724         0.671576         3.283570
 H         2.399973         1.527940         0.849230
