19
Iteration:  1275charge 0 multiplicity 1
 C        -0.047154        -0.051317        -0.044014
 C         1.405826         0.007510         0.118740
 C         2.218831        -1.286454         0.110080
 C         3.232610        -0.150825         0.081655
 C         4.619775        -0.080515         0.508153
 O         4.459540        -0.115552         1.987081
 C         3.023212         0.031072         2.432778
 C         2.362609         0.685155         1.134091
 O         2.348330         0.520546        -0.937969
 H        -0.283756        -0.879463         0.699926
 H        -0.678272         0.783722         0.324924
 H        -0.334996        -0.321307        -1.055785
 H         2.241111        -1.922872         1.033129
 H         2.315796        -1.755345        -0.881820
 H         5.314695        -0.901193         0.282587
 H         5.164208         0.881829         0.301140
 H         2.574142        -0.979413         2.927278
 H         2.879692         0.834979         3.196633
 H         2.518802         1.763548         0.838756
