19
Iteration:  1656charge 0 multiplicity 1
 C        -0.141807         0.094484        -0.223231
 C         1.332936        -0.025103         0.083274
 C         2.187574        -1.380420         0.093802
 C         3.197148        -0.224259         0.123656
 C         4.699478         0.052719         0.561290
 O         4.566625         0.045277         2.019460
 C         3.112089         0.001066         2.457625
 C         2.396706         0.475407         1.260136
 O         2.258850         0.460922        -0.958543
 H        -0.632033        -0.834616         0.273414
 H        -0.336281         0.939338         0.369023
 H        -0.191627         0.192061        -1.299108
 H         2.015569        -1.921920         1.056622
 H         1.949098        -2.005573        -0.803367
 H         5.362721        -0.873551         0.365399
 H         4.996614         0.974441         0.050107
 H         3.010350        -1.092874         2.890160
 H         3.113177         0.842126         3.239304
 H         2.520753         1.593920         1.158302
