19
Iteration:  1375
 C        -0.071604         0.165959        -0.046643
 C         1.337902        -0.058862         0.101389
 C         2.249156        -1.420018         0.062127
 C         3.124162        -0.128654         0.121320
 C         4.583198        -0.013265         0.601496
 O         4.491091         0.184187         1.963163
 C         3.132459        -0.155944         2.461103
 C         2.279273         0.493940         1.233444
 O         2.487337         0.422155        -1.058604
 H        -0.498217         0.023705         0.904914
 H        -0.374620         1.285390        -0.130393
 H        -0.579621        -0.497326        -0.740970
 H         2.001677        -2.248579         0.767562
 H         2.242728        -1.894641        -0.929454
 H         5.195824        -0.868081         0.377364
 H         4.954725         0.983634         0.168737
 H         2.894314        -1.283212         2.614428
 H         3.025281         0.418750         3.404191
 H         2.300772         1.623642         1.228082
