19
Iteration:   606
 C        -0.194944         0.149459        -0.027639
 C         1.383723        -0.153078         0.105853
 C         2.275424        -1.380032         0.032925
 C         3.235985        -0.154979         0.070120
 C         4.643815        -0.060441         0.588276
 O         4.496709         0.217892         1.991737
 C         3.031689        -0.106781         2.402883
 C         2.401627         0.443454         1.171321
 O         2.346603         0.498617        -0.937723
 H        -0.853060        -0.096955         0.926076
 H        -0.130812         1.227640        -0.050564
 H        -0.618454        -0.247050        -0.925599
 H         2.298408        -2.061638         0.892338
 H         2.273894        -1.948902        -0.906402
 H         5.095150        -1.033740         0.434746
 H         5.145010         0.957241         0.283971
 H         2.945979        -1.221431         2.538834
 H         2.903909         0.443261         3.328002
 H         2.546266         1.510588         1.040690
