19
Iteration:  4783charge 0 multiplicity 1
 C        -0.129937        -0.030836        -0.049137
 C         1.388278        -0.162088         0.210967
 C         2.356663        -1.306309        -0.010118
 C         3.139842         0.013053        -0.013599
 C         4.622945         0.028970         0.554562
 O         4.547736        -0.249957         2.057537
 C         3.095176        -0.117029         2.381406
 C         2.280805         0.512945         1.212212
 O         2.310585         0.802298        -0.953962
 H        -0.426937         0.737311         0.613497
 H        -0.169057         0.396503        -1.060772
 H        -0.674509        -0.971709        -0.116785
 H         2.422150        -1.909686         0.983064
 H         2.206172        -1.808167        -0.922418
 H         5.317821        -0.691807         0.145110
 H         5.048038         0.982640         0.510870
 H         2.617475        -1.140154         2.689223
 H         3.057163         0.498400         3.295856
 H         2.250315         1.645198         1.322294
