19
Iteration:  2935
 C        -0.030605         0.020616        -0.182130
 C         1.381333        -0.085469         0.146046
 C         2.173156        -1.402273         0.136770
 C         3.137812        -0.092061         0.095118
 C         4.547068        -0.015648         0.537668
 O         4.506438        -0.215806         2.007654
 C         3.198832         0.190750         2.544308
 C         2.473087         0.615885         1.204132
 O         2.233820         0.501670        -1.001174
 H        -0.741392        -0.532922         0.479266
 H        -0.383712         1.009731        -0.216709
 H        -0.014031        -0.228630        -1.308261
 H         2.035392        -2.125324         0.991285
 H         2.208120        -1.831326        -0.852537
 H         5.324641        -0.750446         0.066653
 H         4.975961         0.944603         0.214121
 H         2.788014        -0.793172         2.864908
 H         3.202082         1.077285         3.198112
 H         2.615332         1.706095         1.233271
