19
Iteration:  2889charge 0 multiplicity 1
 C        -0.017008         0.069953        -0.043347
 C         1.417485        -0.152206         0.168164
 C         2.324780        -1.306160         0.151423
 C         3.175774        -0.007642         0.054848
 C         4.541306         0.005030         0.512321
 O         4.386511        -0.263253         1.973579
 C         3.052550         0.071499         2.480624
 C         2.347686         0.639690         1.164458
 O         2.355875         0.478010        -1.033425
 H        -0.196752         0.162144         1.016250
 H        -0.124753         0.996371        -0.651702
 H        -0.405343        -0.755229        -0.572305
 H         2.448385        -1.705035         1.116030
 H         2.366996        -2.073120        -0.579298
 H         5.129918        -0.759174        -0.030111
 H         5.103918         0.965455         0.232672
 H         2.556977        -0.851198         2.764691
 H         3.201739         0.824879         3.240880
 H         2.349679         1.746549         1.107423
