19
Iteration:  3393charge 0 multiplicity 1
 C        -0.066680         0.118903        -0.189057
 C         1.361870        -0.072859         0.124535
 C         2.162541        -1.403293         0.188429
 C         3.182362        -0.153803         0.155691
 C         4.616260        -0.086295         0.524413
 O         4.568698         0.029207         1.978212
 C         3.117719         0.068115         2.444730
 C         2.355390         0.574205         1.202767
 O         2.305775         0.445857        -0.954347
 H        -0.618794        -0.759404         0.109204
 H        -0.418954         0.995902         0.192552
 H        -0.245324         0.040704        -1.270449
 H         2.249423        -2.033371         1.111506
 H         2.030980        -2.001062        -0.792350
 H         5.209841        -0.947346         0.217161
 H         5.077664         0.820439        -0.034341
 H         2.940254        -0.976916         2.866677
 H         3.115331         0.852075         3.220216
 H         2.341509         1.707877         1.136279
