19
Iteration:  2606
 C        -0.064578         0.100689        -0.147361
 C         1.411096        -0.056601         0.177045
 C         2.346413        -1.356377         0.210866
 C         3.164755        -0.086080         0.041334
 C         4.593007        -0.005932         0.525062
 O         4.464279        -0.239013         1.934664
 C         3.119890         0.040670         2.470753
 C         2.302813         0.635666         1.236385
 O         2.286784         0.481565        -0.969310
 H        -0.814768         0.259478         0.571646
 H         0.011556         0.982833        -0.891276
 H        -0.308346        -0.660746        -0.805669
 H         2.459531        -1.756395         1.240914
 H         2.353288        -2.123111        -0.628257
 H         5.357525        -0.755842         0.072135
 H         4.813544         1.015349         0.261435
 H         2.584921        -0.815005         2.872101
 H         3.172328         0.835535         3.221502
 H         2.296165         1.701842         1.025027
