19
Iteration:  1651charge 0 multiplicity 1
 C        -0.152649         0.092988        -0.225352
 C         1.408809        -0.053202         0.048081
 C         2.140609        -1.385979         0.091631
 C         3.200657        -0.201995         0.106828
 C         4.665875         0.013825         0.519914
 O         4.558243         0.073051         2.057110
 C         3.165614        -0.006077         2.503422
 C         2.413380         0.466158         1.286284
 O         2.243947         0.450769        -0.959847
 H        -0.657011        -0.768964         0.189223
 H        -0.538067         1.084490         0.266577
 H        -0.367825         0.321830        -1.309947
 H         2.092185        -2.018353         0.974484
 H         2.061306        -1.897736        -0.859664
 H         5.331308        -0.796655         0.308301
 H         4.955396         1.020585         0.146256
 H         3.062427        -0.914505         2.972059
 H         3.038940         0.789591         3.201070
 H         2.506126         1.525726         1.141290
