19
Iteration:  3963
 C        -0.151327         0.107173        -0.126849
 C         1.380667        -0.101688         0.082013
 C         2.383085        -1.316265         0.095200
 C         3.163140        -0.035819         0.130655
 C         4.638393        -0.120745         0.528167
 O         4.492056        -0.017891         1.942140
 C         3.134079        -0.083643         2.484018
 C         2.292863         0.642520         1.250688
 O         2.344747         0.498525        -0.959621
 H        -0.568545         0.444523        -1.118858
 H        -0.782725        -0.840471         0.062384
 H        -0.534454         0.740184         0.623733
 H         2.355054        -1.932803         0.920961
 H         2.374444        -1.919533        -0.818784
 H         4.936710        -1.143526         0.243329
 H         5.337140         0.645444         0.265987
 H         2.638242        -1.168339         2.734754
 H         3.089683         0.483013         3.390482
 H         2.106428         1.747160         1.199543
