19
Iteration:  3377
 C        -0.050183         0.052301        -0.137834
 C         1.364818        -0.128956         0.229270
 C         2.177828        -1.407264         0.115161
 C         3.139781        -0.255253        -0.000738
 C         4.548096        -0.124307         0.543953
 O         4.494007         0.077473         1.974637
 C         3.179518         0.139116         2.412483
 C         2.377538         0.558173         1.234236
 O         2.389522         0.564574        -0.935766
 H        -0.785530        -0.534961         0.526576
 H        -0.443423         1.207626        -0.015363
 H        -0.082496        -0.183975        -1.224126
 H         2.147111        -1.897040         1.087046
 H         2.143254        -2.044815        -0.704228
 H         5.165408        -1.057950         0.294469
 H         5.151414         0.691040         0.305492
 H         2.544983        -0.974089         2.635757
 H         3.082593         0.758263         3.319038
 H         2.520348         1.600428         0.948724
