19
Iteration:  1259
 C        -0.030366        -0.061714         0.023594
 C         1.499007         0.006179         0.175583
 C         2.278039        -1.336789         0.116155
 C         3.226644        -0.054444         0.057938
 C         4.648077        -0.008607         0.584150
 O         4.390448        -0.203851         1.990963
 C         2.964413         0.113369         2.361124
 C         2.449832         0.672203         1.169374
 O         2.250195         0.476694        -1.037697
 H        -0.475610        -0.909040         0.536556
 H        -0.368238         0.991622         0.296019
 H        -0.081160        -0.269317        -1.069080
 H         2.222637        -2.046338         0.911104
 H         2.003522        -1.886336        -0.787885
 H         5.190568        -0.922629         0.223011
 H         5.120810         0.929543         0.346907
 H         2.556446        -0.764522         2.543946
 H         3.063839         0.642355         3.289047
 H         2.512265         1.744718         1.153600
