19
Iteration:  1991
 C        -0.122344         0.053608        -0.057191
 C         1.426790        -0.110164         0.134100
 C         2.363395        -1.303774         0.196877
 C         3.179660         0.031533         0.127444
 C         4.628833         0.047565         0.549262
 O         4.427469        -0.248725         1.868469
 C         2.999171         0.059175         2.421615
 C         2.336090         0.599455         1.204908
 O         2.353621         0.404028        -1.029631
 H        -0.538099         0.196211         1.000851
 H        -0.153487         0.959183        -0.527170
 H        -0.453208        -0.835501        -0.516788
 H         2.460905        -1.901583         1.130010
 H         2.407468        -1.819959        -0.759673
 H         5.324913        -0.614557         0.114541
 H         5.013151         1.082139         0.256993
 H         2.575815        -0.794051         2.935839
 H         3.150427         0.810757         3.228116
 H         2.397647         1.730743         1.335192
