19
Iteration:  2583charge 0 multiplicity 1
 C        -0.075864         0.110062        -0.042205
 C         1.368083        -0.129226         0.268732
 C         2.298961        -1.416778         0.193734
 C         3.132196         0.001389         0.102054
 C         4.657133         0.104003         0.570393
 O         4.390967        -0.320083         1.925388
 C         3.087604         0.098364         2.409309
 C         2.302380         0.630031         1.182006
 O         2.461319         0.452322        -1.105624
 H        -0.527904        -0.198403         0.873427
 H        -0.215753         1.184240        -0.416483
 H        -0.422118        -0.551735        -0.818188
 H         2.314799        -2.057961         1.121233
 H         2.190741        -1.882588        -0.808309
 H         5.209267        -0.754488         0.008870
 H         5.004278         1.117012         0.309566
 H         2.583241        -0.689970         2.942929
 H         3.176513         1.036389         3.052097
 H         2.232125         1.733319         0.960407
