19
Iteration:  2427
 C        -0.016830         0.339427        -0.169390
 C         1.367434        -0.227979         0.153257
 C         2.194188        -1.453428         0.144874
 C         3.149151        -0.155286         0.061253
 C         4.622466         0.023983         0.521762
 O         4.515724         0.108886         1.945871
 C         3.118525        -0.000695         2.472702
 C         2.286879         0.410696         1.260659
 O         2.343772         0.417492        -0.925494
 H        -0.614794         0.372294         0.770249
 H         0.007430         1.232109        -0.705479
 H        -0.373383        -0.548797        -0.760714
 H         2.307300        -2.067983         1.016355
 H         2.287216        -2.089483        -0.737591
 H         5.180019        -0.775774         0.078898
 H         5.068116         0.886241         0.035630
 H         3.001797        -1.004430         2.703925
 H         2.960437         0.654932         3.402378
 H         2.186674         1.515224         1.084369
