19
Iteration:  2978charge 0 multiplicity 1
 C        -0.135444         0.144764        -0.020065
 C         1.371443        -0.156316         0.119559
 C         2.230433        -1.390862         0.144788
 C         3.196201        -0.095880         0.108839
 C         4.663194        -0.042757         0.524585
 O         4.521197        -0.059620         1.981741
 C         3.016997         0.022418         2.423248
 C         2.332782         0.660118         1.145691
 O         2.403740         0.421157        -0.994527
 H        -0.894868        -0.573876         0.360298
 H        -0.450679         0.962253         0.583801
 H        -0.400206         0.386972        -1.103718
 H         2.207460        -2.011521         1.036203
 H         2.295870        -1.875240        -0.797037
 H         5.238323        -1.023707         0.210315
 H         5.414327         0.774355         0.222544
 H         2.738910        -0.893481         2.884425
 H         3.126439         0.863494         3.082040
 H         2.247078         1.741638         0.917311
