19
Iteration:  4911charge 0 multiplicity 1
 C        -0.260005         0.046902        -0.106671
 C         1.412494        -0.048059         0.133993
 C         2.330685        -1.284894        -0.158542
 C         3.228762        -0.064783         0.110677
 C         4.647749         0.041225         0.555704
 O         4.577339        -0.039671         1.998074
 C         3.022200        -0.272225         2.434116
 C         2.320309         0.411790         1.277703
 O         2.314481         0.706181        -0.817502
 H        -0.614433         1.036495        -0.549453
 H        -0.404723        -0.732002        -0.915115
 H        -0.897427        -0.027695         0.852506
 H         2.399904        -2.016684         0.668093
 H         2.491857        -1.654778        -1.110679
 H         5.199047        -0.825203         0.075524
 H         5.178642         1.056145         0.217920
 H         2.933260        -1.317325         2.686849
 H         3.033266         0.279325         3.308651
 H         2.412115         1.423892         1.471874
