19
Iteration:  4870charge 0 multiplicity 1
 C        -0.004091         0.135969        -0.057733
 C         1.382950        -0.080568         0.141061
 C         2.354718        -1.359179        -0.154817
 C         3.137138        -0.061245         0.119956
 C         4.592321         0.026031         0.533407
 O         4.517039         0.048902         1.987237
 C         3.058348        -0.239049         2.398221
 C         2.335292         0.400966         1.353382
 O         2.275336         0.629759        -0.851537
 H        -0.390567         1.072961         0.255476
 H        -0.167395         0.031525        -1.121360
 H        -0.654595        -0.592795         0.401993
 H         2.185960        -2.316452         0.457080
 H         2.308360        -1.554389        -1.222340
 H         5.246026        -0.753488         0.237564
 H         4.990224         0.950165         0.219629
 H         2.818389        -1.349246         2.429248
 H         2.846452         0.124631         3.411737
 H         2.286364         1.500151         1.318708
