19
Iteration:  1345charge 0 multiplicity 1
 C        -0.054892         0.198361        -0.157632
 C         1.344709        -0.111454         0.148343
 C         2.232101        -1.518246         0.093229
 C         3.186453        -0.201849         0.074800
 C         4.641048         0.020060         0.527685
 O         4.497248         0.206280         2.032590
 C         3.105949        -0.127707         2.430612
 C         2.380091         0.459956         1.154494
 O         2.300695         0.504137        -0.869030
 H        -0.716430         0.294647         0.667057
 H        -0.175101         1.305114        -0.543903
 H        -0.514768        -0.364129        -0.998574
 H         2.028725        -2.179783         0.920511
 H         2.140359        -1.945702        -0.918915
 H         5.311727        -0.810373         0.330938
 H         4.998279         0.930698         0.045859
 H         2.995768        -1.295494         2.613346
 H         2.982175         0.367678         3.407551
 H         2.582925         1.543273         1.159781
