19
Iteration:  4707
 C        -0.084238         0.034245        -0.058751
 C         1.469690        -0.074460         0.043512
 C         2.429832        -1.296926        -0.044989
 C         3.170788         0.023220         0.134344
 C         4.605203         0.161966         0.539299
 O         4.456428        -0.388260         1.963304
 C         3.051275        -0.130990         2.426577
 C         2.344716         0.516729         1.249027
 O         2.220370         0.670879        -0.881196
 H        -0.304347         1.035912        -0.376618
 H        -0.514873        -0.765159        -0.696314
 H        -0.559873        -0.084878         0.980565
 H         2.547224        -1.914193         0.874837
 H         2.544330        -1.691744        -0.988198
 H         5.311959        -0.561668         0.064731
 H         5.009356         1.211310         0.459546
 H         2.545842        -0.947821         2.822065
 H         3.031249         0.605574         3.290011
 H         2.136825         1.616411         1.337571
