19
Iteration:  2225charge 0 multiplicity 1
 C        -0.062018         0.018974         0.020107
 C         1.393909        -0.074927         0.045978
 C         2.270089        -1.331257         0.059587
 C         3.218325        -0.201291         0.056457
 C         4.745886        -0.238589         0.616477
 O         4.437034         0.087553         2.027725
 C         3.040703         0.088222         2.403577
 C         2.379841         0.611963         1.122725
 O         2.286060         0.559422        -0.979535
 H        -0.424325         0.039815         1.051136
 H        -0.629882         0.917637        -0.505852
 H        -0.450638        -0.997747        -0.310593
 H         2.074792        -1.955307         0.932512
 H         2.284704        -1.920888        -0.847271
 H         5.176728        -1.200536         0.471888
 H         5.402579         0.595118         0.134930
 H         2.582708        -0.870048         2.735026
 H         2.777712         0.765390         3.169489
 H         2.224768         1.644768         1.047641
