19
Iteration:    52charge 0 multiplicity 1
 C        -0.070323         0.261771        -0.123684
 C         1.383663        -0.125603         0.051781
 C         2.263913        -1.479694        -0.018543
 C         3.183196        -0.206245         0.144816
 C         4.607491         0.073170         0.543672
 O         4.493288         0.207786         2.015645
 C         3.128139        -0.047006         2.492011
 C         2.372445         0.366220         1.211378
 O         2.281645         0.402865        -0.917774
 H        -0.809992        -0.140836         0.735464
 H        -0.159085         1.321947        -0.157313
 H        -0.446748        -0.052712        -1.070117
 H         2.245081        -2.032906         0.962160
 H         2.238541        -2.220715        -0.789584
 H         5.107469        -0.878633         0.377407
 H         4.924396         1.102982         0.203689
 H         3.062243        -1.159440         2.651748
 H         2.896692         0.580665         3.345758
 H         2.546318         1.437664         1.110840
