19
Iteration:  4409charge 0 multiplicity 1
 C        -0.122317        -0.009585        -0.096415
 C         1.351368        -0.108681         0.119539
 C         2.356292        -1.273258        -0.057996
 C         3.235955        -0.044457         0.100603
 C         4.680304         0.139650         0.571786
 O         4.432763        -0.350080         1.956066
 C         3.038002        -0.098606         2.406728
 C         2.399253         0.565001         1.224821
 O         2.258446         0.694575        -0.813773
 H        -0.245303         1.043857        -0.587574
 H        -0.671797        -0.616711        -0.861349
 H        -0.554492        -0.278417         0.844375
 H         2.642542        -1.936866         0.673114
 H         2.491137        -1.766311        -1.026296
 H         5.443238        -0.558989         0.170076
 H         5.040229         1.215907         0.610623
 H         2.497119        -1.063613         2.599146
 H         3.041568         0.577458         3.341650
 H         2.411531         1.664571         1.286849
