19
Iteration:  1261charge 0 multiplicity 1
 C        -0.012166        -0.043530         0.013922
 C         1.497453         0.023422         0.162411
 C         2.263431        -1.338024         0.113690
 C         3.203457        -0.058631         0.080809
 C         4.656178        -0.013368         0.585193
 O         4.396594        -0.185052         1.981321
 C         2.947652         0.119805         2.360971
 C         2.468538         0.651192         1.165611
 O         2.256745         0.476794        -1.022927
 H        -0.405685        -0.995102         0.552658
 H        -0.425299         0.833372         0.270618
 H        -0.121792        -0.308983        -1.043732
 H         2.226323        -2.087075         0.894519
 H         1.982905        -1.869412        -0.786021
 H         5.169963        -0.944679         0.178006
 H         5.120292         0.924538         0.282545
 H         2.476616        -0.838018         2.570450
 H         3.128354         0.665606         3.271929
 H         2.524178         1.702699         1.234153
