19
Iteration:  3471charge 0 multiplicity 1
 C        -0.170178         0.098380        -0.001120
 C         1.339456        -0.041106         0.074670
 C         2.336072        -1.406751         0.099509
 C         3.180524        -0.153748         0.107101
 C         4.606689        -0.050643         0.603473
 O         4.495334        -0.204590         2.046569
 C         3.122850         0.262048         2.358355
 C         2.379580         0.633391         1.134971
 O         2.339547         0.386582        -1.015041
 H        -0.579781        -0.840189         0.295888
 H        -0.565589         0.849972         0.682584
 H        -0.497024         0.306538        -0.974896
 H         2.199926        -2.133367         0.938246
 H         2.460843        -1.937391        -0.903026
 H         5.296799        -0.761496         0.206697
 H         4.967126         1.009885         0.375496
 H         2.605906        -0.599374         2.985286
 H         3.171944         1.195299         2.996096
 H         2.469366         1.726763         0.920786
