19
Iteration:  2972charge 0 multiplicity 1
 C        -0.165326         0.138194        -0.037429
 C         1.355221        -0.110128         0.131141
 C         2.232557        -1.384454         0.176149
 C         3.226565        -0.095524         0.147530
 C         4.713731        -0.063750         0.489977
 O         4.514596        -0.091588         1.956297
 C         3.008507         0.101504         2.368181
 C         2.324810         0.578607         1.164869
 O         2.396141         0.449976        -0.970633
 H        -0.839346        -0.691195         0.204653
 H        -0.399682         1.114768         0.560683
 H        -0.243516         0.217068        -1.107857
 H         2.090460        -2.140457         1.015104
 H         2.445720        -1.875532        -0.848843
 H         5.182174        -0.962924         0.258709
 H         5.255790         0.790890         0.198809
 H         2.891063        -0.849616         3.061595
 H         2.931929         0.880316         3.200417
 H         2.189653         1.643907         0.951717
