19
Iteration:  3388
 C        -0.049265         0.096433        -0.213050
 C         1.380106        -0.077132         0.187922
 C         2.188719        -1.422843         0.175998
 C         3.117166        -0.180701         0.083807
 C         4.612999        -0.078251         0.550992
 O         4.566350         0.025765         1.979093
 C         3.131332         0.091969         2.440022
 C         2.320812         0.573675         1.178796
 O         2.326907         0.490996        -0.948537
 H        -0.572343        -0.764425         0.317734
 H        -0.449570         1.116100         0.228008
 H        -0.266952         0.052064        -1.295044
 H         2.146923        -2.012564         1.089881
 H         1.987594        -1.986304        -0.682874
 H         5.204335        -1.023676         0.384004
 H         5.002699         0.741865         0.012316
 H         3.053345        -0.966223         2.852122
 H         3.164602         0.739171         3.334383
 H         2.441950         1.639376         0.970044
