19
Iteration:  1655
 C        -0.145515         0.095431        -0.226893
 C         1.347760        -0.027382         0.075199
 C         2.179093        -1.381935         0.092927
 C         3.198763        -0.220389         0.119800
 C         4.694823         0.050306         0.552005
 O         4.564846         0.050456         2.028558
 C         3.120871        -0.002583         2.464844
 C         2.401278         0.472626         1.270041
 O         2.254216         0.457874        -0.959567
 H        -0.647715        -0.856078         0.280955
 H        -0.362881         0.969358         0.352745
 H        -0.220793         0.225407        -1.305888
 H         2.026166        -1.937465         1.043659
 H         1.961703        -1.982043        -0.814577
 H         5.369812        -0.889668         0.356285
 H         4.974102         0.968807         0.070508
 H         3.034547        -1.061831         2.908851
 H         3.101159         0.855108         3.232936
 H         2.519735         1.581110         1.149015
