19
Iteration:  4036
 C        -0.007034         0.143242        -0.029013
 C         1.409340        -0.085951        -0.011061
 C         2.268797        -1.349384         0.071544
 C         3.205900        -0.100370         0.028719
 C         4.582289         0.023601         0.537722
 O         4.534244        -0.073774         2.013103
 C         3.039202        -0.029583         2.477782
 C         2.264356         0.480895         1.216561
 O         2.337517         0.508532        -0.945413
 H        -0.497716         0.074982        -0.937234
 H        -0.591992        -0.591978         0.555600
 H        -0.346321         1.121499         0.371267
 H         2.406465        -2.049465         1.020408
 H         2.212436        -2.040800        -0.783016
 H         5.195995        -0.841788         0.145733
 H         4.839131         1.072547         0.236945
 H         2.811412        -1.031275         2.702723
 H         2.977106         0.606334         3.441396
 H         2.320613         1.572049         1.204682
