19
Iteration:  1671charge 0 multiplicity 1
 C        -0.083538         0.082031        -0.106658
 C         1.404692        -0.132831         0.173814
 C         2.189061        -1.389310         0.169114
 C         3.192532        -0.148154         0.112445
 C         4.644584        -0.014575         0.543470
 O         4.528623        -0.008462         1.969688
 C         3.062539         0.020966         2.382064
 C         2.336634         0.584289         1.138764
 O         2.351490         0.507299        -0.917842
 H        -0.648986        -0.706944         0.191784
 H        -0.662783         1.005176         0.082517
 H        -0.233051         0.089151        -1.200995
 H         2.243940        -2.006165         1.068796
 H         2.287892        -1.998068        -0.730638
 H         5.309570        -0.736854         0.210743
 H         5.052921         1.031547         0.313091
 H         2.684489        -0.999301         2.539973
 H         3.013458         0.483962         3.330245
 H         2.341879         1.666134         0.965501
