19
Iteration:  2612
 C        -0.084051         0.138895        -0.204321
 C         1.431202        -0.033565         0.158130
 C         2.362127        -1.388175         0.208105
 C         3.151790        -0.140245         0.124508
 C         4.612986         0.006434         0.508775
 O         4.463460        -0.224123         1.941547
 C         3.091555         0.054155         2.441951
 C         2.334675         0.633258         1.223163
 O         2.236661         0.497474        -0.931034
 H        -0.737489         0.159776         0.734006
 H        -0.096465         0.896361        -0.980141
 H        -0.332293        -0.846878        -0.804335
 H         2.400629        -1.924569         1.151702
 H         2.321950        -2.031504        -0.629665
 H         5.320094        -0.674507         0.103865
 H         5.120238         0.986361         0.154541
 H         2.704404        -0.915869         2.836151
 H         3.311718         0.817559         3.254658
 H         2.401189         1.743572         1.042739
