19
Iteration:  2491
 C        -0.037226         0.042621        -0.078653
 C         1.413127        -0.078489         0.140594
 C         2.235502        -1.336097         0.140154
 C         3.174575        -0.111119         0.113764
 C         4.564828        -0.169511         0.521995
 O         4.480799        -0.029668         1.928606
 C         3.045412         0.095289         2.441428
 C         2.296134         0.585589         1.203505
 O         2.411223         0.525016        -0.994535
 H        -0.469665        -0.633047         0.762207
 H        -0.374464         1.071334         0.008051
 H        -0.463197        -0.342524        -1.064419
 H         2.287944        -1.835182         1.072764
 H         2.213551        -1.980386        -0.729408
 H         5.205491        -0.978449         0.469843
 H         5.069268         0.785841         0.064228
 H         2.779103        -0.896843         2.779254
 H         3.246261         0.718735         3.320884
 H         2.351301         1.666300         1.125680
