19
Iteration:   816
 C        -0.035024         0.204252        -0.185503
 C         1.359737        -0.130762         0.057924
 C         2.197194        -1.458799        -0.045387
 C         3.106393        -0.239835         0.134315
 C         4.563746        -0.022158         0.583279
 O         4.553042         0.323088         1.947942
 C         3.166818        -0.145318         2.483702
 C         2.298971         0.413609         1.310502
 O         2.358762         0.511269        -0.873495
 H        -0.548497        -0.191608         0.829918
 H        -0.169039         1.239812        -0.068880
 H        -0.563763        -0.207905        -1.085083
 H         2.067221        -2.188800         0.795264
 H         2.289299        -1.876817        -1.054296
 H         5.081963        -0.949643         0.543306
 H         4.983947         0.853961         0.083314
 H         3.143594        -1.328093         2.454014
 H         3.254926         0.237477         3.498893
 H         2.403244         1.459547         1.299756
