19
Iteration:   919charge 0 multiplicity 1
 C         0.053768        -0.043912         0.042175
 C         1.468815        -0.074039         0.114003
 C         2.273461        -1.298563         0.096788
 C         3.235580        -0.069209         0.027947
 C         4.608305         0.080087         0.586828
 O         4.370865        -0.313926         1.993621
 C         2.993416         0.117658         2.382149
 C         2.336912         0.624888         1.128010
 O         2.288953         0.527826        -0.986182
 H        -0.217294        -0.592709         0.900751
 H        -0.401266         1.078699         0.234666
 H        -0.493752        -0.462977        -0.802622
 H         2.480569        -2.014735         0.844285
 H         2.107179        -1.864232        -0.826648
 H         5.489999        -0.478469         0.168319
 H         4.990787         1.094545         0.473559
 H         2.582348        -0.868807         2.656876
 H         3.135223         0.735497         3.280152
 H         2.546109         1.738897         0.964993
