19
Iteration:  2478
 C        -0.042900         0.090546        -0.142913
 C         1.368489        -0.100025         0.111145
 C         2.127667        -1.368345         0.205180
 C         3.130728        -0.177296         0.081325
 C         4.642899        -0.031169         0.521880
 O         4.525089         0.029998         1.991692
 C         3.134333        -0.000809         2.411187
 C         2.310739         0.522100         1.210272
 O         2.419289         0.509394        -0.950562
 H        -0.672184        -0.270972         0.752432
 H        -0.251152         1.206657        -0.203537
 H        -0.274401        -0.434790        -1.055611
 H         2.040720        -1.940199         1.105041
 H         1.999949        -2.032602        -0.671451
 H         5.061206        -0.823652        -0.029650
 H         5.207333         0.894723         0.152957
 H         2.840096        -0.982656         2.916525
 H         2.940724         0.805100         3.052152
 H         2.365294         1.566618         1.100251
