19
Iteration:  2586
 C        -0.067880         0.110666        -0.082868
 C         1.363305        -0.157014         0.278751
 C         2.292650        -1.366977         0.215655
 C         3.127778        -0.003964         0.086339
 C         4.619252         0.103517         0.556535
 O         4.402214        -0.316559         1.941360
 C         3.082503         0.114569         2.410330
 C         2.335030         0.606983         1.182389
 O         2.443788         0.457068        -1.105941
 H        -0.442989        -0.152238         0.886700
 H        -0.122878         1.111049        -0.485682
 H        -0.468863        -0.531630        -0.786612
 H         2.313375        -1.983086         1.135822
 H         2.151998        -1.885218        -0.787606
 H         5.217567        -0.687046         0.026555
 H         5.111524         1.040135         0.331804
 H         2.670051        -0.836218         2.959759
 H         3.220994         0.944553         3.026456
 H         2.206903         1.665856         1.109482
