19
Iteration:  3681
 C        -0.099241         0.127331        -0.071009
 C         1.337921        -0.164515         0.016011
 C         2.252034        -1.321345         0.030242
 C         3.202683        -0.119532         0.149673
 C         4.731454        -0.185542         0.620729
 O         4.543804         0.073141         1.972987
 C         3.085691         0.027523         2.424572
 C         2.328767         0.505438         1.167175
 O         2.241066         0.557289        -0.891521
 H        -0.191585         0.978892        -0.773226
 H        -0.538921        -0.790669        -0.580838
 H        -0.445549         0.348171         0.876629
 H         2.310311        -2.118984         0.879865
 H         2.291412        -1.814251        -0.981762
 H         5.209773        -1.062539         0.246075
 H         5.117408         0.629064         0.126512
 H         2.818422        -1.017030         2.901709
 H         2.911753         0.562427         3.425940
 H         2.312271         1.610276         1.081045
