19
Iteration:  3245
 C        -0.070329         0.063007        -0.198341
 C         1.377267        -0.090463         0.135658
 C         2.286947        -1.362909         0.186410
 C         3.165747        -0.139101         0.163953
 C         4.596906        -0.004644         0.496925
 O         4.483692        -0.163111         1.929891
 C         3.125851         0.127318         2.413334
 C         2.427563         0.629904         1.235731
 O         2.246448         0.463726        -0.904834
 H        -0.684539        -0.607855         0.408957
 H        -0.357782         1.181301        -0.052313
 H        -0.228227        -0.064629        -1.263790
 H         2.485711        -2.007448         1.036703
 H         2.193992        -2.030321        -0.675963
 H         5.231189        -0.928707         0.302034
 H         4.998988         0.950765         0.161772
 H         2.645013        -0.710190         2.765398
 H         3.052806         0.881035         3.172980
 H         2.485112         1.681320         1.094322
