19
Iteration:  3913charge 0 multiplicity 1
 C        -0.063296         0.079446        -0.070050
 C         1.385837        -0.018340        -0.004190
 C         2.226765        -1.333147         0.021388
 C         3.155873        -0.207511         0.141070
 C         4.596324         0.014885         0.500579
 O         4.496087        -0.076572         1.997829
 C         3.098690         0.015198         2.503744
 C         2.405170         0.469159         1.243727
 O         2.345866         0.541067        -0.909296
 H        -0.510888        -0.337830        -0.987519
 H        -0.591606        -0.494757         0.630039
 H        -0.410330         1.130595         0.004854
 H         2.073051        -2.157630         0.785516
 H         2.383311        -1.795174        -0.999764
 H         5.397627        -0.663263         0.114711
 H         4.929369         1.102634         0.261571
 H         2.683846        -0.873741         2.800157
 H         2.933818         0.712206         3.347310
 H         2.405503         1.544876         1.146278
