19
Iteration:  2005charge 0 multiplicity 1
 C        -0.123010         0.039540         0.064060
 C         1.364605        -0.095314         0.160525
 C         2.386475        -1.331413         0.159573
 C         3.230733        -0.059340         0.071869
 C         4.633229         0.140795         0.500248
 O         4.354884        -0.333733         1.973787
 C         3.054567         0.098961         2.368901
 C         2.307124         0.695513         1.124497
 O         2.451540         0.432682        -1.010895
 H        -0.540411         0.115079         1.028497
 H        -0.583859         0.828189        -0.564658
 H        -0.649063        -0.849291        -0.361868
 H         2.319347        -2.065796         0.943191
 H         2.471560        -1.821941        -0.809048
 H         5.250043        -0.642223         0.122862
 H         5.056082         1.116631         0.596700
 H         2.640839        -0.930033         2.732118
 H         3.163449         0.894555         3.127339
 H         2.153415         1.735940         0.931031
