19
Iteration:  2655charge 0 multiplicity 1
 C        -0.087704         0.116998        -0.095384
 C         1.370652        -0.006672         0.174017
 C         2.219731        -1.381787         0.076465
 C         3.165324        -0.202944         0.076903
 C         4.552197        -0.097918         0.585847
 O         4.516283         0.001371         2.004668
 C         3.179336         0.032878         2.519098
 C         2.308659         0.463986         1.216330
 O         2.409564         0.579579        -1.067175
 H        -0.582999         0.018461         0.947889
 H        -0.485765         0.888048        -0.680489
 H        -0.449847        -0.817940        -0.689339
 H         2.352076        -2.055149         0.931974
 H         2.159466        -1.910949        -0.846963
 H         5.095955        -0.922627         0.218356
 H         5.022361         0.777999         0.025149
 H         2.706638        -0.986369         2.797211
 H         2.878646         0.886814         3.131997
 H         2.423336         1.574906         1.079025
