19
Iteration:   195
 C        -0.089760         0.087674        -0.060960
 C         1.425509        -0.042777         0.107974
 C         2.389239        -1.307383         0.277246
 C         3.214286        -0.059124         0.082376
 C         4.582273         0.251927         0.579097
 O         4.381992        -0.396756         1.857627
 C         3.054144         0.057979         2.440053
 C         2.378915         0.623853         1.149823
 O         2.312825         0.381552        -1.047026
 H        -0.495197        -0.529078         0.941358
 H        -0.487548         1.052822        -0.174955
 H        -0.311376        -0.456900        -0.944855
 H         2.211744        -1.746116         1.232885
 H         2.541672        -2.131218        -0.416433
 H         5.380793        -0.351914         0.136965
 H         4.809672         1.392178         0.642903
 H         2.613214        -0.883526         2.837823
 H         3.168859         0.693717         3.303844
 H         2.419018         1.682600         1.103353
