19
Iteration:  3561charge 0 multiplicity 1
 C        -0.124981         0.088007        -0.073434
 C         1.426886        -0.064431         0.031531
 C         2.280884        -1.351079         0.219805
 C         3.182359        -0.158032         0.132116
 C         4.582610         0.033482         0.487106
 O         4.491190        -0.223290         1.957511
 C         3.113471         0.150144         2.463568
 C         2.335778         0.575926         1.182062
 O         2.326090         0.441295        -0.993620
 H        -0.693162         0.507140         0.748054
 H        -0.192426         0.825214        -0.920942
 H        -0.655539        -0.792132        -0.379428
 H         2.213099        -1.835217         1.273173
 H         2.387318        -1.947109        -0.670722
 H         5.422794        -0.628322         0.123081
 H         4.888492         1.103893         0.360954
 H         2.719025        -0.870133         2.954330
 H         3.164030         1.033325         3.219787
 H         2.531273         1.653325         1.104480
