19
Iteration:  2437charge 0 multiplicity 1
 C        -0.032059         0.294798        -0.220648
 C         1.377386        -0.133812         0.171778
 C         2.225784        -1.509457         0.110985
 C         3.154699        -0.166412         0.171493
 C         4.548155         0.052628         0.488001
 O         4.577212         0.104758         2.026243
 C         3.169269        -0.038546         2.408248
 C         2.337278         0.465956         1.232718
 O         2.255786         0.365006        -0.937018
 H        -0.681665         0.545606         0.691493
 H         0.183319         1.235985        -0.681158
 H        -0.504925        -0.428749        -0.993185
 H         2.087393        -2.165289         0.934363
 H         2.215398        -1.962885        -0.887731
 H         5.184353        -0.761648         0.334510
 H         4.891925         1.052304         0.083063
 H         2.996217        -0.997882         2.759213
 H         3.035972         0.651444         3.288601
 H         2.323965         1.565216         1.249546
