19
Iteration:  2713charge 0 multiplicity 1
 C        -0.139708         0.205315         0.007786
 C         1.442043        -0.086185         0.144481
 C         2.248096        -1.359385         0.021852
 C         3.232814        -0.167536         0.022195
 C         4.641344        -0.068070         0.551685
 O         4.442040         0.124835         2.073150
 C         3.095400        -0.032979         2.467370
 C         2.442987         0.466854         1.159503
 O         2.267229         0.407230        -1.074383
 H        -0.760118        -0.514848         0.488094
 H        -0.209622         1.189390         0.625244
 H        -0.284561         0.260427        -1.039118
 H         2.196820        -1.878742         0.942833
 H         2.132807        -1.982114        -0.867960
 H         4.993430        -1.055413         0.491661
 H         5.341342         0.690578         0.221710
 H         2.739570        -1.060917         2.852856
 H         2.847325         0.601885         3.368449
 H         2.524731         1.580045         0.984284
