19
Iteration:  2811charge 0 multiplicity 1
 C        -0.089840         0.032624        -0.078389
 C         1.380545        -0.086923         0.155896
 C         2.282602        -1.346429         0.121257
 C         3.210680        -0.095859         0.083926
 C         4.615923        -0.040881         0.499817
 O         4.435668        -0.140066         1.923029
 C         3.047651         0.128055         2.402061
 C         2.338683         0.634433         1.245801
 O         2.413662         0.442561        -0.913402
 H        -0.644863        -0.525361         0.643900
 H        -0.297700         1.145545         0.119975
 H        -0.311132        -0.294728        -1.052480
 H         2.213182        -2.060987         0.859148
 H         2.187290        -1.711575        -0.894742
 H         5.067343        -0.916561         0.121432
 H         5.115092         0.924325         0.149414
 H         2.510964        -0.832338         2.782501
 H         3.123761         0.827670         3.265086
 H         2.440470         1.736702         1.240125
