19
Iteration:   106charge 0 multiplicity 1
 C        -0.115166        -0.061991        -0.122517
 C         1.357408        -0.037557         0.068612
 C         2.233871        -1.310928         0.010932
 C         3.212331        -0.100265         0.103773
 C         4.624279        -0.200720         0.576551
 O         4.497581         0.124490         2.002938
 C         3.117136        -0.005926         2.518148
 C         2.371004         0.539810         1.186154
 O         2.349592         0.577677        -0.950936
 H        -0.631288        -0.593079         0.865082
 H        -0.623839         0.914084        -0.115023
 H        -0.507518        -0.558714        -1.006579
 H         2.219317        -2.101742         0.818282
 H         2.078396        -1.815741        -0.930319
 H         5.215101        -1.125496         0.288084
 H         5.248976         0.635505         0.134203
 H         2.886914        -0.976593         3.052007
 H         3.010363         0.734273         3.298988
 H         2.368027         1.633440         1.214153
