19
Iteration:  1916charge 0 multiplicity 1
 C        -0.099988         0.102461        -0.084861
 C         1.397368        -0.119789         0.022228
 C         2.197433        -1.402658         0.044636
 C         3.145825        -0.215563         0.138551
 C         4.579080        -0.142055         0.597538
 O         4.533105         0.205915         1.931250
 C         3.169977         0.000667         2.471175
 C         2.328981         0.486872         1.217302
 O         2.385121         0.539807        -0.912722
 H        -0.641351        -0.823436         0.301359
 H        -0.258860         0.949935         0.495023
 H        -0.370482         0.259810        -1.110884
 H         1.932531        -1.831785         0.987673
 H         2.175622        -2.000190        -0.843727
 H         5.119476        -1.073962         0.475921
 H         5.069356         0.654782         0.015180
 H         2.837070        -1.088742         2.730192
 H         2.848495         0.755998         3.211590
 H         2.404066         1.592587         1.114335
