19
Iteration:  2956charge 0 multiplicity 1
 C        -0.059058         0.116996        -0.144759
 C         1.384742        -0.101531         0.135327
 C         2.266122        -1.372137         0.122629
 C         3.170491        -0.184135         0.099451
 C         4.588968        -0.072536         0.520902
 O         4.486927        -0.125587         1.950944
 C         3.122640         0.167863         2.457041
 C         2.337255         0.559373         1.204599
 O         2.327430         0.496878        -0.899969
 H        -0.639332        -0.665830         0.385371
 H        -0.592948         0.924319         0.285125
 H        -0.315887         0.146704        -1.242901
 H         2.305209        -1.885294         1.096700
 H         2.137630        -1.970131        -0.748575
 H         5.338647        -0.886053         0.149510
 H         5.130737         0.868633         0.150616
 H         2.677710        -0.710559         2.856472
 H         3.293049         1.043908         3.059171
 H         2.327840         1.659155         1.005716
