19
Iteration:  1652charge 0 multiplicity 1
 C        -0.151859         0.092687        -0.227695
 C         1.395329        -0.044853         0.053553
 C         2.149831        -1.385623         0.091869
 C         3.200925        -0.206519         0.109348
 C         4.674612         0.025408         0.526685
 O         4.559583         0.067378         2.051500
 C         3.153450        -0.008266         2.494161
 C         2.411314         0.467854         1.285818
 O         2.244976         0.451659        -0.960217
 H        -0.659996        -0.810022         0.225672
 H        -0.493898         1.072367         0.294696
 H        -0.331418         0.307388        -1.317743
 H         2.074651        -1.994851         0.990071
 H         2.032238        -1.912687        -0.844371
 H         5.345840        -0.835080         0.322080
 H         4.950162         1.000795         0.128861
 H         3.068395        -0.929280         2.949209
 H         3.054748         0.813794         3.202820
 H         2.510032         1.531123         1.138353
