19
Iteration:  1371
 C        -0.068394         0.197808        -0.074667
 C         1.316208        -0.084597         0.117946
 C         2.205564        -1.403318         0.041733
 C         3.129630        -0.120743         0.129744
 C         4.609947         0.007352         0.633293
 O         4.494996         0.182809         1.958955
 C         3.131437        -0.161503         2.449129
 C         2.275067         0.467273         1.242968
 O         2.485958         0.414095        -1.074133
 H        -0.529010         0.037382         1.038674
 H        -0.421524         1.163549        -0.204827
 H        -0.578765        -0.483422        -0.760177
 H         2.138081        -2.143361         0.927759
 H         2.290045        -1.923287        -0.930310
 H         5.281803        -0.874750         0.376263
 H         4.884192         0.928840         0.092647
 H         3.067177        -1.168666         2.642649
 H         3.057829         0.371538         3.394156
 H         2.351000         1.557483         1.330503
