19
Iteration:  1772charge 0 multiplicity 1
 C        -0.066440        -0.030201        -0.055946
 C         1.393727        -0.169724         0.145094
 C         2.377881        -1.331843         0.192630
 C         3.149912         0.053833         0.127822
 C         4.596550         0.025745         0.549629
 O         4.411816        -0.360168         1.875803
 C         3.047735         0.178543         2.448520
 C         2.325143         0.617558         1.170164
 O         2.394773         0.536317        -1.004297
 H        -0.659868         0.293928         0.821864
 H        -0.166463         0.785341        -0.772367
 H        -0.560834        -0.894782        -0.465018
 H         2.299843        -1.758659         1.177926
 H         2.366523        -1.891675        -0.739028
 H         5.223237        -0.801133         0.109275
 H         5.013708         1.116978         0.438439
 H         2.684421        -0.756338         2.860549
 H         3.236907         1.027392         3.139873
 H         2.189427         1.760463         1.097150
