19
Iteration:  4361charge 0 multiplicity 1
 C        -0.075824         0.095147        -0.083799
 C         1.444823        -0.086312         0.023098
 C         2.404346        -1.344486         0.002523
 C         3.170378        -0.046240         0.140599
 C         4.573601         0.092008         0.519084
 O         4.469660        -0.157059         1.950114
 C         3.046574        -0.251872         2.463441
 C         2.323971         0.439901         1.258216
 O         2.318677         0.747972        -0.878692
 H        -0.289691         0.872362        -0.785623
 H        -0.716678        -0.738427        -0.463560
 H        -0.459910         0.152455         0.979798
 H         2.068220        -2.054104         0.765641
 H         2.342875        -1.764121        -0.998998
 H         5.309634        -0.635653         0.187027
 H         4.999969         1.184419         0.470404
 H         2.689311        -1.263489         2.669891
 H         2.952773         0.322766         3.325629
 H         2.265103         1.533360         1.380746
