19
Iteration:  2181charge 0 multiplicity 1
 C        -0.100353         0.127845         0.036480
 C         1.376431        -0.114371         0.137910
 C         2.234984        -1.403464        -0.006969
 C         3.224545        -0.159786         0.063186
 C         4.671419        -0.181305         0.569783
 O         4.429688         0.225257         2.026080
 C         3.046457         0.054400         2.362518
 C         2.326674         0.501402         1.174972
 O         2.386585         0.459470        -0.982883
 H        -0.647343        -0.179023         0.933409
 H        -0.159633         1.340283        -0.076332
 H        -0.616642        -0.567928        -0.758025
 H         2.353128        -2.131262         0.800911
 H         2.134389        -1.969594        -0.960541
 H         5.159861        -1.210504         0.601607
 H         5.437231         0.662733         0.189128
 H         2.887303        -1.058325         2.685958
 H         2.968118         0.559946         3.334496
 H         2.485267         1.549037         1.052967
