19
Iteration:  1698
 C        -0.008160         0.059684        -0.004995
 C         1.436070        -0.104316         0.160833
 C         2.362645        -1.285178         0.112798
 C         3.199313        -0.043168         0.087117
 C         4.613723        -0.021236         0.535346
 O         4.418975        -0.141808         1.933056
 C         2.960234         0.054341         2.478289
 C         2.317176         0.614920         1.190076
 O         2.326917         0.433855        -1.056631
 H        -0.562809        -0.623926         0.825747
 H        -0.434053         1.056339        -0.015014
 H        -0.413383        -0.287995        -0.987454
 H         2.524894        -1.853683         1.041233
 H         2.480130        -1.827549        -0.842041
 H         5.086811        -1.043989         0.184466
 H         5.210856         0.840295         0.381270
 H         2.582390        -0.902819         2.825585
 H         3.105284         0.758687         3.353971
 H         2.337078         1.747044         1.042648
