19
Iteration:  2000
 C        -0.105265         0.045119         0.021930
 C         1.353904        -0.095962         0.149895
 C         2.397558        -1.307078         0.193437
 C         3.204138         0.003502         0.115144
 C         4.631793         0.099726         0.506410
 O         4.376125        -0.308186         1.909012
 C         3.042889         0.066723         2.401392
 C         2.320460         0.647898         1.162236
 O         2.431152         0.407752        -1.022107
 H        -0.598764         0.167392         1.066985
 H        -0.553910         0.839890        -0.593557
 H        -0.641187        -0.770291        -0.454569
 H         2.338236        -2.158122         0.934085
 H         2.487945        -1.785622        -0.800569
 H         5.420651        -0.678663         0.237689
 H         5.042266         1.176387         0.400729
 H         2.618384        -0.794820         2.802164
 H         2.963931         0.916191         3.108245
 H         2.288591         1.802331         1.050351
