19
Iteration:  1842
 C        -0.154599         0.128858        -0.022359
 C         1.362947        -0.113704         0.086392
 C         2.216416        -1.360808         0.083958
 C         3.229129        -0.264217         0.118048
 C         4.610257        -0.019457         0.563017
 O         4.478570         0.041378         1.932875
 C         3.055681         0.068059         2.457322
 C         2.350409         0.453489         1.151778
 O         2.450465         0.513732        -0.934688
 H        -0.659644        -0.595424         0.660708
 H        -0.418334         1.192040         0.206653
 H        -0.472532        -0.102757        -1.068107
 H         2.286058        -1.944518         1.018013
 H         2.369117        -1.923022        -0.833111
 H         5.206735        -0.876697         0.106438
 H         4.913624         0.951312         0.152940
 H         2.734451        -0.819941         2.848829
 H         3.093151         0.863748         3.177349
 H         2.468939         1.503762         1.053452
