19
Iteration:  1421charge 0 multiplicity 1
 C        -0.115533         0.007072        -0.012193
 C         1.416894        -0.104875         0.069223
 C         2.287049        -1.353060         0.027754
 C         3.282497        -0.108825         0.029905
 C         4.684239        -0.080569         0.588889
 O         4.446791        -0.092057         2.131879
 C         3.100378         0.133114         2.427684
 C         2.417174         0.566436         1.165825
 O         2.169576         0.553141        -1.042826
 H        -0.735316        -0.534968         0.547960
 H        -0.492568         1.057789         0.197168
 H        -0.383049        -0.230816        -1.063316
 H         2.390893        -1.999071         0.871231
 H         2.264942        -1.913369        -0.915019
 H         5.029562        -1.060542         0.367633
 H         5.301618         0.730658         0.226274
 H         2.828822        -0.865770         2.961961
 H         3.069020         0.908619         3.202343
 H         2.414992         1.657640         1.165569
