19
Iteration:  3481
 C        -0.144209         0.074810         0.007907
 C         1.375005        -0.158564         0.113479
 C         2.291446        -1.292466         0.118775
 C         3.217609        -0.115283         0.125172
 C         4.635888        -0.064232         0.602740
 O         4.520805        -0.251442         2.049992
 C         3.111907         0.255175         2.416883
 C         2.290267         0.619175         1.022922
 O         2.316998         0.448254        -1.070781
 H        -0.567449        -0.813705         0.428530
 H        -0.474336         0.892226         0.597104
 H        -0.446473         0.241903        -1.003257
 H         2.303892        -1.845889         1.092297
 H         2.371303        -2.008024        -0.793400
 H         5.221166        -0.877179         0.318660
 H         5.068656         0.899449         0.261525
 H         2.610403        -0.598015         3.205407
 H         3.185528         1.221595         3.000692
 H         2.413971         1.742584         0.877621
