19
Iteration:  3827
 C        -0.195684        -0.076192         0.018894
 C         1.354487        -0.046138         0.081211
 C         2.251936        -1.240587         0.035156
 C         3.206241         0.020902         0.031020
 C         4.645801         0.075215         0.610209
 O         4.488445        -0.300489         1.995041
 C         3.052093        -0.012310         2.427482
 C         2.395156         0.565795         1.162406
 O         2.406008         0.560073        -0.985982
 H        -0.461342        -0.984393        -0.550390
 H        -0.610912         0.205497         0.957976
 H        -0.233163         0.829665        -0.672373
 H         2.164527        -1.858942         0.966802
 H         2.164405        -1.845478        -0.937033
 H         5.266926        -0.746596         0.197495
 H         5.092791         1.034696         0.682315
 H         2.634020        -0.976270         3.051163
 H         3.160592         0.906431         3.152307
 H         2.418510         1.674418         1.157630
