19
Iteration:  2528
 C        -0.063824        -0.012569         0.052906
 C         1.425264        -0.071279         0.134247
 C         2.316771        -1.271767         0.052752
 C         3.262879        -0.130549        -0.002802
 C         4.751430        -0.160695         0.713570
 O         4.439456        -0.198754         2.060665
 C         3.029566         0.199334         2.371885
 C         2.412762         0.665644         1.087966
 O         2.174453         0.529261        -1.078762
 H        -0.570442        -0.734910         0.646016
 H        -0.443649         0.936363         0.509275
 H        -0.407796        -0.135870        -0.976492
 H         2.288024        -1.894204         1.015820
 H         2.161502        -1.912593        -0.822318
 H         5.287219        -1.125570         0.390465
 H         5.163806         0.727077         0.275340
 H         2.478069        -0.646004         2.744356
 H         2.891310         0.957855         3.186888
 H         2.139323         1.758131         0.941567
