19
Iteration:  1252charge 0 multiplicity 1
 C        -0.050466        -0.043910         0.031500
 C         1.456005        -0.074171         0.207668
 C         2.320548        -1.313491         0.122885
 C         3.275123        -0.057912        -0.006087
 C         4.629042        -0.003413         0.581288
 O         4.383053        -0.253214         2.018088
 C         3.040521         0.093990         2.376599
 C         2.383502         0.748001         1.140380
 O         2.247188         0.480369        -1.057837
 H        -0.735260        -0.744662         0.641792
 H        -0.297125         0.958383         0.249246
 H        -0.146691        -0.126036        -1.048041
 H         2.306253        -1.915569         1.057408
 H         2.185220        -1.858256        -0.813136
 H         5.338310        -0.819788         0.324117
 H         5.165165         0.965467         0.501959
 H         2.542711        -0.955063         2.616990
 H         2.895337         0.691319         3.303888
 H         2.434287         1.814316         0.899546
