19
Iteration:  4823charge 0 multiplicity 1
 C         0.000573         0.080435        -0.043964
 C         1.397957        -0.033084         0.031376
 C         2.258197        -1.346163        -0.087857
 C         3.230067        -0.115064         0.126468
 C         4.597738         0.037618         0.528920
 O         4.525764        -0.048002         2.029733
 C         3.074850        -0.210179         2.437742
 C         2.260044         0.457923         1.304613
 O         2.286178         0.691797        -0.918427
 H        -0.347370         0.567057         0.879608
 H        -0.376641         0.503613        -0.980070
 H        -0.507556        -0.928826         0.102905
 H         2.287735        -2.123071         0.726574
 H         2.306570        -1.818051        -1.082801
 H         5.269704        -0.689493         0.078064
 H         4.907964         1.088009         0.166062
 H         2.873342        -1.275119         2.716162
 H         3.040139         0.263800         3.385757
 H         2.148619         1.499912         1.213788
