19
Iteration:   585
 C        -0.035915         0.191709        -0.060280
 C         1.428262        -0.191172         0.176637
 C         2.244757        -1.435589        -0.154226
 C         3.129230        -0.178360         0.091577
 C         4.618081        -0.140329         0.570999
 O         4.507577         0.251335         2.000870
 C         3.151348         0.056277         2.483439
 C         2.269012         0.378190         1.252920
 O         2.328184         0.525911        -0.947342
 H        -0.700893        -0.257274         0.826031
 H        -0.153128         1.226450        -0.118887
 H        -0.451290        -0.279709        -0.914361
 H         2.255275        -2.303160         0.510291
 H         2.071463        -1.738109        -1.192132
 H         5.068097        -1.146542         0.704335
 H         5.270961         0.772291         0.173937
 H         3.073543        -1.075458         2.782752
 H         3.019312         0.661055         3.329139
 H         1.945651         1.383114         1.262225
