19
Iteration:  1897
 C        -0.107861         0.204428        -0.038623
 C         1.374754        -0.096511         0.168052
 C         2.253004        -1.431812         0.063645
 C         3.234926        -0.221189         0.062499
 C         4.694259        -0.193105         0.534647
 O         4.437324         0.309439         2.013409
 C         3.065533        -0.026055         2.391360
 C         2.389168         0.476961         1.175048
 O         2.311622         0.483628        -0.942550
 H        -0.701626        -0.676930         0.209936
 H        -0.589319         0.932742         0.684080
 H        -0.353868         0.299136        -1.132169
 H         2.494046        -2.191397         0.814436
 H         2.247450        -1.878973        -0.940614
 H         5.066449        -1.292457         0.286728
 H         5.491184         0.482532         0.200078
 H         2.737943        -1.073882         2.520806
 H         2.824331         0.486089         3.345571
 H         2.380650         1.523440         1.152237
