19
Iteration:  3890
 C        -0.123656         0.147775        -0.059376
 C         1.360800        -0.186180         0.138266
 C         2.289932        -1.412197         0.015397
 C         3.150829        -0.032986         0.017021
 C         4.657594         0.038628         0.627527
 O         4.534554        -0.139252         1.990202
 C         3.101859        -0.002540         2.398009
 C         2.229172         0.502668         1.262461
 O         2.415013         0.557264        -0.962400
 H        -0.820233        -0.466316        -0.723894
 H        -0.802667         0.111429         0.767053
 H        -0.117610         1.159117        -0.399862
 H         2.392883        -2.167597         0.832366
 H         2.173685        -1.969343        -0.998656
 H         5.352300        -0.708476         0.196620
 H         5.139416         1.085030         0.349450
 H         2.777488        -0.867975         2.816452
 H         3.054423         0.736395         3.190356
 H         2.090176         1.570754         1.286127
