19
Iteration:  3437
 C        -0.021396         0.142446        -0.074786
 C         1.437211        -0.098079         0.215311
 C         2.231196        -1.387658         0.236780
 C         3.123552        -0.186207         0.055140
 C         4.588406        -0.008730         0.508665
 O         4.515631        -0.077786         2.011592
 C         3.041171         0.131587         2.326668
 C         2.361934         0.524399         1.145667
 O         2.336668         0.427903        -0.986329
 H        -0.603907        -0.758687        -0.059434
 H        -0.445479         0.906193         0.457864
 H         0.037005         0.479673        -1.115730
 H         2.173564        -1.896007         1.218115
 H         2.195618        -2.054405        -0.701656
 H         5.314090        -0.705790         0.142067
 H         4.907370         1.066460         0.283454
 H         2.698552        -0.833483         2.943803
 H         3.097039         0.974494         3.036816
 H         2.271464         1.636458         0.982559
