19
Iteration:  4195charge 0 multiplicity 1
 C        -0.053544         0.049856        -0.080395
 C         1.409479        -0.055016         0.143247
 C         2.263521        -1.380333        -0.050375
 C         3.146259        -0.003356         0.077141
 C         4.639528         0.153874         0.594056
 O         4.458371        -0.269361         1.959918
 C         3.066272        -0.065512         2.491597
 C         2.326181         0.534503         1.227288
 O         2.376838         0.583272        -0.932256
 H        -0.417253         0.074177         0.967656
 H        -0.395879         0.967820        -0.550871
 H        -0.243891        -0.936776        -0.695005
 H         2.303297        -2.240530         0.650563
 H         2.182339        -1.612323        -1.082125
 H         5.322402        -0.602859         0.183073
 H         4.935756         1.239153         0.364450
 H         2.614446        -1.081440         2.680303
 H         2.967332         0.600636         3.307198
 H         2.223553         1.596444         1.454217
