19
Iteration:  3498charge 0 multiplicity 1
 C        -0.066334        -0.002723        -0.009811
 C         1.387092        -0.074955         0.101417
 C         2.321464        -1.403204         0.202528
 C         3.215922        -0.040414        -0.014687
 C         4.683148        -0.104104         0.567959
 O         4.365763        -0.239837         1.980115
 C         3.083089         0.265741         2.412604
 C         2.384566         0.655777         1.182974
 O         2.293527         0.482341        -1.044597
 H        -0.609797        -0.735150         0.675274
 H        -0.407955         1.015163         0.336553
 H        -0.337831         0.013446        -1.137204
 H         2.282273        -1.980234         1.134428
 H         2.261016        -2.123434        -0.582023
 H         5.226629        -1.039160         0.197062
 H         5.284760         0.833088         0.467535
 H         2.619973        -0.451392         2.959467
 H         3.177245         1.124783         3.081224
 H         2.270908         1.740627         1.128077
