19
Iteration:   320
 C        -0.015331         0.260644        -0.113225
 C         1.357232        -0.216774         0.092790
 C         2.234393        -1.493491         0.056324
 C         3.170971        -0.218187         0.089322
 C         4.523262         0.008742         0.517380
 O         4.545893         0.237488         2.019982
 C         3.128688        -0.032098         2.460974
 C         2.258571         0.376738         1.287074
 O         2.378026         0.464745        -0.985980
 H        -0.633148        -0.320409         0.476053
 H        -0.040571         1.265870         0.559244
 H        -0.412186         0.409967        -1.206944
 H         2.215782        -2.090399         0.968426
 H         2.303155        -1.957145        -0.886717
 H         5.183346        -0.804345         0.189459
 H         4.922565         0.929571         0.050929
 H         3.057662        -1.077007         2.626607
 H         2.991708         0.495068         3.448721
 H         2.162827         1.524404         1.095095
