19
Iteration:  3270charge 0 multiplicity 1
 C        -0.136201         0.158267        -0.106793
 C         1.359717        -0.140740         0.079298
 C         2.211912        -1.369235         0.102267
 C         3.157432        -0.111427         0.101031
 C         4.625831         0.033910         0.533677
 O         4.586330        -0.087098         1.987367
 C         3.137515         0.065658         2.476847
 C         2.339625         0.512111         1.200842
 O         2.345320         0.434333        -0.973824
 H        -0.716604        -0.177608         0.762521
 H        -0.295283         1.147464        -0.448273
 H        -0.428149        -0.421971        -0.975762
 H         2.246388        -1.883309         1.154497
 H         2.069824        -2.178076        -0.597767
 H         5.321510        -0.832076         0.270582
 H         5.008734         1.100177         0.318242
 H         2.826725        -0.812341         2.909338
 H         2.878759         0.910937         3.146049
 H         2.263177         1.640621         1.147549
