19
Iteration:  4360
 C        -0.079487         0.102009        -0.080803
 C         1.430960        -0.083713         0.022423
 C         2.407060        -1.346078        -0.005671
 C         3.179956        -0.047120         0.139885
 C         4.577195         0.093457         0.521804
 O         4.467063        -0.152896         1.947880
 C         3.045388        -0.249556         2.456646
 C         2.326825         0.439638         1.258297
 O         2.319285         0.743407        -0.870497
 H        -0.269571         0.842921        -0.780576
 H        -0.690578        -0.724991        -0.463577
 H        -0.486279         0.140709         0.964272
 H         2.070107        -2.095415         0.788518
 H         2.355834        -1.782152        -0.985204
 H         5.308115        -0.648594         0.165309
 H         5.030640         1.173527         0.480324
 H         2.685686        -1.251971         2.675001
 H         2.944212         0.306949         3.338039
 H         2.244663         1.529958         1.380301
