19
Iteration:  4800
 C        -0.129787         0.077866        -0.055684
 C         1.330289        -0.171342         0.246170
 C         2.336340        -1.320772        -0.091713
 C         3.234905         0.020779         0.108437
 C         4.619188         0.054078         0.555966
 O         4.434413        -0.154298         1.951515
 C         3.040058        -0.130889         2.394222
 C         2.400654         0.503580         1.232107
 O         2.340241         0.672475        -0.873968
 H        -0.717514         0.583487         0.772035
 H        -0.212868         0.397792        -1.101885
 H        -0.521421        -0.975540        -0.069089
 H         2.565042        -2.124160         0.574663
 H         2.416092        -1.670325        -1.164608
 H         5.153544        -0.841950         0.144777
 H         5.209836         0.995497         0.231212
 H         2.892208        -1.165469         2.666105
 H         2.938852         0.384030         3.344504
 H         2.324975         1.570268         1.245465
