19
Iteration:  1086charge 0 multiplicity 1
 C        -0.066265         0.239174        -0.016424
 C         1.417815        -0.102518         0.014297
 C         2.212044        -1.474211        -0.086824
 C         3.221490        -0.261847         0.119409
 C         4.717938        -0.051850         0.646023
 O         4.465277         0.217098         2.034162
 C         3.124107        -0.070637         2.508747
 C         2.323084         0.463550         1.169611
 O         2.233322         0.485246        -1.008084
 H        -0.700565        -0.660236         0.616200
 H        -0.252546         1.114232         0.524889
 H        -0.626381         0.381968        -1.021029
 H         2.181137        -1.998681         0.798902
 H         2.266426        -1.805163        -1.095751
 H         5.275936        -1.019068         0.664669
 H         5.249621         0.697267         0.038927
 H         3.099294        -1.149373         3.010956
 H         2.889818         0.660490         3.336767
 H         2.460430         1.484051         0.998726
