19
Iteration:  4574charge 0 multiplicity 1
 C        -0.185973         0.119425        -0.086500
 C         1.351005        -0.096919         0.109573
 C         2.263858        -1.367707        -0.140775
 C         3.204934        -0.116023         0.188708
 C         4.676320         0.037842         0.567785
 O         4.518128         0.035113         2.014410
 C         3.088681        -0.282292         2.374835
 C         2.376010         0.466156         1.315799
 O         2.330116         0.692074        -0.861982
 H        -0.522404         1.140614        -0.328685
 H        -0.511039        -0.468997        -0.956110
 H        -0.749602        -0.366429         0.778961
 H         2.313033        -2.271739         0.458997
 H         2.204122        -1.622738        -1.181816
 H         5.364867        -0.754651         0.132904
 H         5.116576         1.083644         0.486727
 H         3.023261        -1.331243         2.348447
 H         2.883080         0.147828         3.324668
 H         2.435721         1.530570         1.106391
