19
Iteration:  3984charge 0 multiplicity 1
 C        -0.025089         0.103293        -0.076319
 C         1.408294        -0.081130         0.074478
 C         2.258355        -1.346730         0.048774
 C         3.177892        -0.145087         0.121445
 C         4.591545        -0.075487         0.523089
 O         4.485472        -0.019777         2.020108
 C         3.096635        -0.004724         2.430988
 C         2.356690         0.501978         1.240413
 O         2.288305         0.577579        -0.965992
 H        -0.372935         0.423358        -1.069372
 H        -0.597668        -0.894355        -0.052738
 H        -0.440984         0.706049         0.687263
 H         2.210250        -1.997335         0.890841
 H         2.339356        -1.975612        -0.848538
 H         5.259608        -0.950956         0.280168
 H         5.059387         0.805395         0.081714
 H         2.819691        -0.984536         2.923781
 H         2.924460         0.742803         3.226029
 H         2.472141         1.617273         1.213357
