19
Iteration:   210charge 0 multiplicity 1
 C        -0.080475         0.007696        -0.079231
 C         1.417111        -0.068363         0.158659
 C         2.270940        -1.351416         0.147824
 C         3.221478        -0.024460         0.047954
 C         4.689267         0.164056         0.604587
 O         4.395039        -0.319821         1.959255
 C         3.111823         0.073989         2.430519
 C         2.379423         0.639664         1.170941
 O         2.260411         0.409154        -1.020639
 H        -0.630306        -0.328227         0.781874
 H        -0.328365         1.115430        -0.330265
 H        -0.404171        -0.651376        -0.955621
 H         2.519752        -2.099076         0.917777
 H         2.047254        -1.812027        -0.830463
 H         5.494353        -0.456904         0.229534
 H         4.828914         1.253392         0.626822
 H         2.639055        -0.685164         2.997577
 H         3.252823         0.998874         3.072701
 H         2.401497         1.765761         1.245264
