19
Iteration:  3884
 C        -0.100118         0.137123        -0.056147
 C         1.345400        -0.194968         0.185000
 C         2.315415        -1.390150         0.041780
 C         3.157385        -0.046502         0.018391
 C         4.678560         0.046151         0.573136
 O         4.469707        -0.149726         1.986578
 C         3.105065         0.008866         2.403705
 C         2.277027         0.483148         1.277093
 O         2.383133         0.568633        -0.994265
 H        -0.651384        -0.457664        -0.742381
 H        -0.720019         0.281207         0.885472
 H        -0.014015         1.149902        -0.627651
 H         2.431594        -2.148102         0.847746
 H         2.276652        -1.795219        -0.919126
 H         5.439813        -0.673202         0.177107
 H         5.161374         0.975593         0.485582
 H         2.584328        -1.058361         2.726586
 H         2.967673         0.768154         3.251761
 H         1.962189         1.563535         1.274057
