19
Iteration:   730charge 0 multiplicity 1
 C        -0.108432        -0.135173         0.011711
 C         1.384578        -0.054967         0.136506
 C         2.325554        -1.278631         0.177566
 C         3.209276         0.011041         0.053757
 C         4.704804         0.020649         0.538436
 O         4.372407        -0.412171         1.987165
 C         3.064071         0.173969         2.390490
 C         2.334124         0.664436         1.114217
 O         2.350150         0.600710        -1.023043
 H        -0.417500        -0.742589         0.898813
 H        -0.479411         0.892134        -0.051830
 H        -0.385104        -0.676513        -0.941862
 H         2.284276        -1.866077         1.105183
 H         2.244947        -2.068962        -0.571947
 H         5.554479        -0.598775         0.044585
 H         5.105583         1.094495         0.550312
 H         2.515241        -0.692115         2.795246
 H         3.209143         0.908108         3.118842
 H         2.263038         1.750990         1.100928
