19
Iteration:  1064charge 0 multiplicity 1
 C        -0.057719         0.244501        -0.047183
 C         1.375712        -0.193735         0.178764
 C         2.269011        -1.421673         0.014509
 C         3.213277        -0.160154         0.011796
 C         4.574680        -0.069041         0.553764
 O         4.494180         0.207221         2.045008
 C         3.082868        -0.075758         2.344301
 C         2.326721         0.443128         1.203461
 O         2.364293         0.453616        -0.910600
 H        -0.937774        -0.436254         0.429832
 H        -0.185893         1.198714         0.401619
 H        -0.342904         0.389014        -1.122133
 H         2.233969        -1.995284         0.857902
 H         2.275592        -1.802998        -0.970452
 H         5.209363        -0.941450         0.561528
 H         5.130103         0.790762         0.133139
 H         2.845025        -1.134035         2.592257
 H         2.769752         0.503741         3.235711
 H         2.282232         1.486989         1.171419
