19
Iteration:  4980
 C        -0.154923         0.038915         0.001002
 C         1.403124        -0.127571         0.077622
 C         2.452478        -1.313033        -0.110398
 C         3.137157         0.066746         0.135519
 C         4.618976         0.192379         0.638307
 O         4.505138        -0.385624         1.926824
 C         3.061275        -0.170651         2.418112
 C         2.317354         0.581577         1.249099
 O         2.284599         0.663030        -0.921147
 H        -0.124254         0.912590        -0.552753
 H        -0.452171        -0.778551        -0.617907
 H        -0.482896         0.270029         1.001177
 H         2.339000        -2.093983         0.669869
 H         2.487107        -1.874334        -1.132689
 H         5.306602        -0.461761         0.142909
 H         4.971856         1.297440         0.544887
 H         2.623312        -1.154750         2.673998
 H         3.114875         0.393073         3.427236
 H         1.980717         1.664716         1.391840
