19
Iteration:  3010
 C        -0.015415         0.146655         0.063803
 C         1.457045        -0.037108         0.121904
 C         2.204366        -1.387585         0.121534
 C         3.235193        -0.246286         0.070966
 C         4.671218        -0.043068         0.548904
 O         4.456495         0.039775         2.021101
 C         2.972255        -0.038017         2.405929
 C         2.407154         0.600828         1.065970
 O         2.271271         0.447970        -1.010216
 H        -0.493673        -0.781208         0.471088
 H        -0.426877         1.141890         0.427944
 H        -0.320135         0.222119        -1.047963
 H         2.132886        -2.032069         0.979713
 H         2.158556        -1.969266        -0.760309
 H         5.321639        -0.972975         0.341400
 H         5.076578         0.981579         0.134509
 H         2.570295        -0.975176         2.788085
 H         2.958248         0.769839         3.134939
 H         2.621899         1.703352         1.118660
