19
Iteration:  1318charge 0 multiplicity 1
 C        -0.032190         0.115121        -0.154192
 C         1.379135        -0.123403         0.153306
 C         2.284199        -1.392188         0.003416
 C         3.170535        -0.140434         0.116576
 C         4.607563        -0.087597         0.492273
 O         4.517546         0.087643         2.016433
 C         3.150130         0.036389         2.484397
 C         2.258669         0.467293         1.252959
 O         2.300984         0.490977        -0.911959
 H        -0.823251        -0.004511         0.666178
 H        -0.115361         1.145965        -0.410813
 H        -0.336005        -0.297978        -1.099261
 H         2.137048        -2.092669         0.851631
 H         2.171597        -1.712773        -1.034164
 H         5.176631        -1.007952         0.231381
 H         5.120029         0.776553        -0.013786
 H         2.874260        -1.021022         2.849940
 H         3.110804         0.710082         3.365856
 H         2.198668         1.582664         1.294628
