19
Iteration:  2847charge 0 multiplicity 1
 C        -0.154785         0.052000         0.077098
 C         1.419522        -0.111211         0.001166
 C         2.295035        -1.346979         0.063346
 C         3.211645        -0.142739         0.014093
 C         4.665231         0.053589         0.622326
 O         4.461785        -0.252294         2.070763
 C         3.026059         0.144242         2.363771
 C         2.447156         0.606955         1.093889
 O         2.287670         0.516848        -0.978059
 H        -0.437887         0.101590         1.162363
 H        -0.262000         1.033557        -0.410272
 H        -0.934170        -0.587244        -0.447681
 H         2.345093        -1.943550         1.021676
 H         2.241946        -1.991277        -0.815006
 H         5.502378        -0.683705         0.449749
 H         5.072377         1.016724         0.581520
 H         2.536104        -0.925755         2.759409
 H         2.972694         0.873721         3.240512
 H         2.480175         1.633415         0.693195
