19
Iteration:  2452charge 0 multiplicity 1
 C        -0.103113         0.256447        -0.255604
 C         1.316425        -0.132075         0.109987
 C         2.192185        -1.391664         0.124649
 C         3.149868        -0.305345         0.131714
 C         4.658346         0.048781         0.570125
 O         4.546647         0.095045         1.966553
 C         3.167888        -0.031988         2.497363
 C         2.410920         0.569974         1.267415
 O         2.253067         0.349662        -0.900905
 H        -0.710969         0.257733         0.590132
 H        -0.072861         1.283471        -0.611671
 H        -0.507132        -0.424443        -1.027054
 H         2.331714        -2.233986         0.884770
 H         2.131864        -1.857809        -0.871381
 H         5.485700        -0.507521        -0.007844
 H         4.831098         1.003505         0.168399
 H         2.879042        -1.133240         2.561447
 H         3.118574         0.500915         3.484202
 H         2.630210         1.659664         0.992052
