19
Iteration:  4124
 C        -0.202337         0.015105        -0.058698
 C         1.455214        -0.136901         0.155305
 C         2.342841        -1.372966         0.022380
 C         3.195265        -0.021321         0.077783
 C         4.601593         0.048984         0.509416
 O         4.454158        -0.304310         1.959337
 C         3.020221         0.038240         2.477066
 C         2.326153         0.597596         1.228169
 O         2.427406         0.666127        -0.933490
 H        -0.581222        -0.994629        -0.020662
 H        -0.813613         0.599702         0.664305
 H        -0.203030         0.373720        -1.029487
 H         2.362576        -2.200635         0.775994
 H         2.313187        -1.832694        -1.019968
 H         5.266684        -0.750736         0.012369
 H         5.016590         1.093623         0.488705
 H         2.635141        -0.851456         2.994781
 H         3.112455         0.897517         3.273154
 H         2.347562         1.687311         1.063471
