19
Iteration:  1511
 C        -0.139850         0.081152        -0.104935
 C         1.400801        -0.192620         0.135063
 C         2.320869        -1.372906         0.178654
 C         3.269416         0.016050         0.099031
 C         4.686019         0.071949         0.592662
 O         4.451000        -0.276290         1.913359
 C         3.043766         0.119744         2.456378
 C         2.349904         0.617558         1.131446
 O         2.283630         0.453445        -0.995027
 H        -0.639795         0.081650         0.870659
 H        -0.130846         1.087156        -0.354091
 H        -0.607270        -0.483363        -0.883921
 H         2.313375        -2.100643         0.988152
 H         2.389284        -1.760971        -0.830500
 H         5.400605        -0.751674         0.321502
 H         5.014701         1.073287         0.417692
 H         2.685747        -0.832535         3.032600
 H         2.959561         0.917904         3.216689
 H         2.115712         1.670283         1.214426
