19
Iteration:  4254charge 0 multiplicity 1
 C        -0.065285         0.049068        -0.080278
 C         1.388075        -0.020090         0.091610
 C         2.292174        -1.277141        -0.060924
 C         3.241136        -0.000654         0.100310
 C         4.663459        -0.024586         0.584701
 O         4.504144        -0.053782         2.011495
 C         3.074712        -0.244307         2.441239
 C         2.345274         0.483222         1.299049
 O         2.221115         0.614861        -0.939407
 H        -0.535475         0.735665         0.643281
 H        -0.106558         0.523329        -1.123133
 H        -0.714659        -0.812141        -0.037126
 H         2.431540        -2.083550         0.630856
 H         2.365964        -1.761187        -1.086237
 H         5.349850        -0.842324         0.422565
 H         5.114881         0.920428         0.305619
 H         2.782859        -1.346588         2.595709
 H         2.759915         0.402311         3.307976
 H         2.098793         1.544439         1.234733
