19
Iteration:  2663
 C        -0.090908         0.113499        -0.051515
 C         1.423385        -0.074533         0.101434
 C         2.209740        -1.342667         0.092327
 C         3.136380        -0.130967         0.053668
 C         4.551750        -0.138315         0.532820
 O         4.465442         0.065488         1.984261
 C         3.067601         0.000649         2.462869
 C         2.386790         0.471434         1.201988
 O         2.431616         0.536425        -0.981219
 H        -0.409582         0.002948         0.989993
 H        -0.330392         1.106996        -0.445420
 H        -0.459471        -0.706906        -0.653988
 H         2.309452        -2.060294         0.940512
 H         2.234841        -1.891227        -0.903457
 H         5.238411        -1.069823         0.303549
 H         5.050151         0.737439         0.103069
 H         2.820587        -1.010550         3.076019
 H         2.993476         0.777982         3.232652
 H         2.408894         1.537027         1.134224
