19
Iteration:    69
 C        -0.049781         0.190389        -0.125168
 C         1.397061        -0.218084         0.185384
 C         2.228991        -1.431439         0.156860
 C         3.195009        -0.123434         0.089005
 C         4.713356        -0.038396         0.546615
 O         4.469302         0.240673         1.958083
 C         3.052971        -0.152954         2.353460
 C         2.263907         0.497523         1.217818
 O         2.338859         0.472920        -0.929892
 H        -0.642227        -0.200410         0.619466
 H        -0.055306         1.376917        -0.058931
 H        -0.374108        -0.219474        -1.184305
 H         2.198978        -2.195703         0.929747
 H         2.195153        -1.726523        -0.954195
 H         5.305189        -1.002310         0.448248
 H         5.179086         0.863309         0.163318
 H         2.980131        -1.226402         2.480361
 H         3.048955         0.450392         3.290860
 H         2.040114         1.622282         1.281336
