19
Iteration:  1145charge 0 multiplicity 1
 C        -0.054383        -0.001703        -0.109194
 C         1.398549        -0.067747         0.169744
 C         2.272626        -1.280656         0.116185
 C         3.138273        -0.002513         0.143928
 C         4.554184        -0.142487         0.500119
 O         4.508703        -0.027295         1.961906
 C         3.092125        -0.050939         2.467050
 C         2.272640         0.614656         1.200256
 O         2.400026         0.547243        -1.007152
 H        -0.670971        -0.321428         0.757588
 H        -0.474714         1.045830        -0.439806
 H        -0.269380        -0.720130        -0.895187
 H         2.411135        -1.967278         1.017025
 H         2.409497        -2.023289        -0.684091
 H         5.041813        -1.099602         0.411272
 H         5.217380         0.629074         0.071184
 H         2.831324        -1.084891         2.609672
 H         2.944521         0.505662         3.377023
 H         2.358302         1.740802         1.192912
