19
Iteration:  2803charge 0 multiplicity 1
 C        -0.090656         0.053803        -0.144126
 C         1.390541        -0.131040         0.174777
 C         2.286328        -1.386801         0.149310
 C         3.208337        -0.094213         0.138318
 C         4.607478        -0.074743         0.497415
 O         4.494041        -0.129494         1.952064
 C         3.061833         0.116798         2.383034
 C         2.368091         0.699976         1.191948
 O         2.343904         0.503293        -0.906094
 H        -0.778557        -0.619079         0.401215
 H        -0.482675         1.083349         0.142888
 H        -0.482815        -0.131356        -1.144668
 H         2.202652        -2.113695         1.010653
 H         2.289107        -1.956961        -0.808000
 H         5.199116        -0.939800         0.083931
 H         4.978055         0.841951         0.159376
 H         2.554459        -0.935663         2.719412
 H         3.232287         0.616099         3.368946
 H         2.328864         1.807421         1.196702
