19
Iteration:   970
 C        -0.012874         0.006464        -0.002375
 C         1.433241        -0.148554         0.158728
 C         2.409694        -1.375541         0.106318
 C         3.211908         0.044727         0.046877
 C         4.600622         0.043966         0.569256
 O         4.366383        -0.411398         1.927218
 C         3.038278         0.150651         2.397514
 C         2.285298         0.638897         1.212553
 O         2.303287         0.596090        -1.012990
 H        -0.564140         0.018486         0.929834
 H        -0.279288         0.947110        -0.537124
 H        -0.401503        -0.851901        -0.630287
 H         2.296836        -1.961842         1.112723
 H         2.624623        -1.962447        -0.834889
 H         5.238901        -0.725955         0.106863
 H         5.085846         1.067174         0.470677
 H         2.722703        -0.720615         3.128054
 H         3.250434         0.959440         3.099553
 H         2.137828         1.777457         1.206155
