19
Iteration:  4016charge 0 multiplicity 1
 C        -0.124506         0.143842        -0.033565
 C         1.364127        -0.129609         0.171519
 C         2.186306        -1.393785        -0.052453
 C         3.175591        -0.199782         0.137748
 C         4.670100         0.072402         0.579758
 O         4.459462        -0.045712         1.997179
 C         3.117614         0.004025         2.428369
 C         2.416500         0.526349         1.227206
 O         2.377809         0.504016        -0.988696
 H        -0.332488         0.324494        -1.090895
 H        -0.639032        -0.850622         0.314822
 H        -0.646785         0.916194         0.474596
 H         2.103423        -2.228274         0.711512
 H         2.307571        -1.698855        -1.116343
 H         5.406452        -0.769614         0.417626
 H         4.899222         1.089151         0.251874
 H         2.811687        -0.929936         2.699333
 H         2.839293         0.753662         3.190767
 H         2.614281         1.615293         1.063049
