19
Iteration:  1886charge 0 multiplicity 1
 C        -0.089842         0.180183         0.014220
 C         1.407085        -0.136447         0.237827
 C         2.311145        -1.409312         0.004445
 C         3.191619        -0.158407         0.054525
 C         4.655655        -0.184119         0.623878
 O         4.444246         0.270007         1.997940
 C         3.064312        -0.072081         2.362681
 C         2.403662         0.548104         1.147369
 O         2.263750         0.428428        -0.999938
 H        -0.703576        -0.707783         0.204247
 H        -0.318265         1.169525         0.506209
 H        -0.102475         0.566310        -1.045464
 H         2.215472        -2.155703         0.804980
 H         2.131790        -1.803540        -1.000361
 H         5.189120        -1.242081         0.811007
 H         5.261552         0.607623         0.144279
 H         2.947303        -1.160192         2.537266
 H         2.716881         0.586872         3.157836
 H         2.434569         1.593592         1.125198
