19
Iteration:  1670
 C        -0.080964         0.085388        -0.111651
 C         1.395650        -0.127938         0.173148
 C         2.187795        -1.384527         0.163583
 C         3.189492        -0.158835         0.117671
 C         4.649608        -0.008509         0.554992
 O         4.536577        -0.004915         1.963264
 C         3.065267         0.023867         2.386818
 C         2.334332         0.574803         1.132478
 O         2.346559         0.507416        -0.918926
 H        -0.659418        -0.714077         0.177851
 H        -0.657997         0.982297         0.092577
 H        -0.236967         0.086303        -1.196975
 H         2.227901        -1.997579         1.081124
 H         2.275057        -2.026846        -0.732187
 H         5.336942        -0.736982         0.212498
 H         5.078101         1.026417         0.308019
 H         2.659565        -1.028171         2.550294
 H         3.021192         0.485161         3.354078
 H         2.360411         1.672134         0.994933
