19
Iteration:  2067charge 0 multiplicity 1
 C        -0.125210        -0.037509         0.013714
 C         1.389965        -0.158286         0.146224
 C         2.374849        -1.304705         0.099150
 C         3.214371        -0.031790         0.038314
 C         4.642747        -0.091745         0.618015
 O         4.468969        -0.251072         2.013810
 C         3.023517         0.205824         2.423340
 C         2.327703         0.692774         1.067566
 O         2.298868         0.518091        -1.004102
 H        -0.526249        -0.589322         1.024848
 H        -0.331484         0.998539         0.024641
 H        -0.478329        -0.365453        -0.994640
 H         2.342716        -2.095330         0.909343
 H         2.629656        -1.714339        -0.916670
 H         5.031256        -0.974118         0.123854
 H         5.337472         0.856168         0.321855
 H         2.550713        -0.684400         2.837455
 H         3.096464         0.976552         3.217114
 H         2.310591         1.857152         0.971801
