19
Iteration:  1222charge 0 multiplicity 1
 C        -0.117961         0.072671         0.046143
 C         1.458391        -0.128517         0.021567
 C         2.435597        -1.390484         0.118842
 C         3.236205        -0.053924         0.089662
 C         4.627633         0.112020         0.575422
 O         4.383288        -0.345511         1.917805
 C         3.066479         0.182886         2.438578
 C         2.235113         0.570922         1.188563
 O         2.337952         0.475689        -0.999962
 H        -0.738088        -0.251797         0.903707
 H        -0.287856         1.312695        -0.092143
 H        -0.653481        -0.282267        -0.862863
 H         2.270653        -1.991906         1.075175
 H         2.521309        -2.071420        -0.753715
 H         5.257940        -0.636475         0.127782
 H         5.151836         1.101849         0.555051
 H         2.727708        -0.687042         3.120974
 H         3.113996         1.148907         2.999069
 H         2.224089         1.710549         1.041423
