19
Iteration:   327charge 0 multiplicity 1
 C        -0.023790         0.301580        -0.077446
 C         1.340613        -0.239918         0.056800
 C         2.294375        -1.498576        -0.002700
 C         3.107498        -0.182531         0.115245
 C         4.520641         0.023012         0.501513
 O         4.543685         0.182987         2.028740
 C         3.152263         0.034955         2.450643
 C         2.256425         0.405344         1.252575
 O         2.401991         0.417666        -0.902301
 H        -0.837056        -0.374453         0.399848
 H        -0.049214         1.239567         0.297440
 H        -0.320125         0.385115        -1.084049
 H         2.282280        -2.132937         0.858297
 H         2.225407        -2.143953        -0.916679
 H         5.156776        -0.792813         0.280134
 H         4.740462         1.037526         0.103026
 H         3.084868        -1.079563         2.584367
 H         3.119266         0.548343         3.430525
 H         2.119467         1.414949         1.020869
