19
Iteration:  4683
 C        -0.173219         0.001086        -0.045494
 C         1.414831        -0.144268         0.211555
 C         2.323172        -1.306068        -0.102227
 C         3.167072         0.020039         0.094174
 C         4.679822         0.144790         0.574015
 O         4.480426        -0.285591         1.954417
 C         3.047561        -0.146504         2.394496
 C         2.270885         0.527319         1.264471
 O         2.414027         0.706495        -0.904190
 H        -0.299644         0.892205        -0.616632
 H        -0.584287        -0.901650        -0.505641
 H        -0.727786         0.239294         0.926904
 H         2.396697        -2.161210         0.668165
 H         2.294149        -1.492961        -1.195455
 H         5.291783        -0.604502         0.132080
 H         5.133570         1.143022         0.429460
 H         2.671555        -1.185633         2.668725
 H         2.903145         0.382509         3.308515
 H         2.277711         1.634779         1.243036
