19
Iteration:  1587
 C        -0.099605         0.100428        -0.094429
 C         1.386685        -0.098335         0.071364
 C         2.264687        -1.381051         0.070097
 C         3.196077        -0.162186         0.075430
 C         4.556282        -0.122935         0.626412
 O         4.492991         0.199360         2.017726
 C         3.129912        -0.084919         2.410230
 C         2.402517         0.514118         1.224172
 O         2.282891         0.532581        -0.998812
 H        -0.735966        -0.256756         0.771479
 H        -0.142782         1.237428        -0.020432
 H        -0.421284        -0.381516        -1.038483
 H         2.349376        -1.965081         0.974714
 H         2.211218        -1.984114        -0.817477
 H         4.980187        -1.190368         0.486797
 H         5.206007         0.645479         0.202815
 H         2.882371        -1.175218         2.475008
 H         2.955185         0.458837         3.347988
 H         2.686468         1.567441         1.265711
