19
Iteration:   871
 C        -0.032276         0.053862        -0.124773
 C         1.383818        -0.110407         0.069426
 C         2.248515        -1.348402        -0.001784
 C         3.146318        -0.113618         0.192102
 C         4.588655        -0.134340         0.518028
 O         4.539666         0.153697         2.028685
 C         3.152165        -0.052123         2.409249
 C         2.339393         0.495551         1.246690
 O         2.268998         0.568670        -0.900920
 H        -0.734060        -0.642888         0.453518
 H        -0.370338         1.047933         0.112218
 H        -0.337132        -0.046037        -1.207591
 H         1.995404        -2.169735         0.724257
 H         2.452714        -1.876908        -0.925784
 H         5.091581        -1.044522         0.354699
 H         5.265097         0.565378        -0.006361
 H         2.914823        -1.168563         2.723378
 H         3.115986         0.585864         3.289277
 H         2.175102         1.554894         1.288497
