19
Iteration:   299
 C        -0.068053         0.161272        -0.061760
 C         1.363109        -0.040922         0.121599
 C         2.190272        -1.411042         0.057980
 C         3.231379        -0.172080         0.098414
 C         4.689534        -0.047424         0.580600
 O         4.399095         0.293946         1.954898
 C         3.101729        -0.160345         2.384243
 C         2.413730         0.427903         1.199515
 O         2.319257         0.422717        -0.907152
 H        -0.710213        -0.509459         0.394975
 H        -0.507836         1.276714         0.164202
 H        -0.130534        -0.051414        -1.224272
 H         2.128625        -2.017217         1.017231
 H         1.983345        -1.962211        -0.842536
 H         5.322450        -1.008540         0.529862
 H         5.216561         0.817102         0.135935
 H         3.120068        -1.224114         2.575909
 H         3.005631         0.382375         3.366303
 H         2.441288         1.587886         1.104813
