19
Iteration:  1723
 C        -0.092061        -0.020184         0.013847
 C         1.394546        -0.143451         0.081959
 C         2.332502        -1.341935         0.082169
 C         3.241453        -0.090795         0.079055
 C         4.695498         0.058555         0.603128
 O         4.412508        -0.288416         2.069471
 C         3.071570         0.138124         2.343276
 C         2.383310         0.621217         1.071949
 O         2.252333         0.567861        -1.001238
 H        -0.478237        -0.157283         1.093300
 H        -0.418863         0.979451        -0.316388
 H        -0.798751        -0.643642        -0.608574
 H         2.388655        -1.861474         1.084654
 H         2.373611        -1.915626        -0.892672
 H         5.294815        -0.839523         0.326566
 H         5.204657         1.051128         0.671010
 H         2.371843        -0.712106         2.869371
 H         3.165083         1.015464         3.030727
 H         2.363352         1.783751         0.892923
