19
Iteration:  1047charge 0 multiplicity 1
 C        -0.004239         0.169568        -0.101213
 C         1.365093        -0.094034         0.134879
 C         2.279204        -1.466315         0.100900
 C         3.170214        -0.178247         0.195570
 C         4.590985        -0.046432         0.486810
 O         4.436700         0.136864         1.935791
 C         3.050307        -0.086447         2.423617
 C         2.339670         0.516673         1.231406
 O         2.370480         0.531208        -0.936227
 H        -0.593416        -0.486558         0.423024
 H        -0.301096         1.224168         0.211277
 H        -0.181928         0.015131        -1.173113
 H         2.382871        -2.190319         1.039487
 H         2.189794        -1.893667        -0.950035
 H         5.125026        -0.991203         0.220662
 H         5.027778         0.910183         0.108345
 H         2.832290        -1.204384         2.440130
 H         3.070932         0.336571         3.424884
 H         2.461777         1.658442         1.153736
