19
Iteration:  2843
 C        -0.164380         0.039399         0.085984
 C         1.436291        -0.114370        -0.006731
 C         2.286621        -1.355865         0.088183
 C         3.208768        -0.145580        -0.019214
 C         4.623738         0.020631         0.633171
 O         4.468239        -0.232069         2.076098
 C         3.037549         0.124595         2.400346
 C         2.434009         0.593453         1.134921
 O         2.303540         0.537912        -1.022661
 H        -0.295887         0.050554         1.129156
 H        -0.215832         1.078956        -0.379737
 H        -0.733703        -0.567463        -0.544219
 H         2.221409        -1.910995         0.957753
 H         2.178780        -1.985858        -0.789620
 H         5.432491        -0.603654         0.356740
 H         5.095677         1.094340         0.504723
 H         2.562727        -0.753354         2.681351
 H         3.061399         0.927969         3.106251
 H         2.418534         1.656852         0.871535
