19
Iteration:  4503
 C        -0.103397         0.016262        -0.028546
 C         1.364366        -0.072936         0.161318
 C         2.342162        -1.298127        -0.042707
 C         3.153163         0.040449         0.087956
 C         4.642922         0.085025         0.586937
 O         4.484928        -0.256564         1.990206
 C         3.060078        -0.138787         2.440593
 C         2.347792         0.519615         1.278358
 O         2.325779         0.644455        -1.005965
 H        -0.577948         0.768192         0.577668
 H        -0.306655         0.447092        -1.018493
 H        -0.533141        -0.989605         0.039705
 H         2.416648        -2.203739         0.696103
 H         2.391051        -1.687502        -1.145326
 H         5.212999        -0.671614         0.101294
 H         4.999299         1.072715         0.391365
 H         2.789008        -1.160313         2.803152
 H         3.169617         0.608665         3.266878
 H         2.208264         1.629328         1.286982
