19
Iteration:  1319charge 0 multiplicity 1
 C        -0.026697         0.113808        -0.150175
 C         1.381601        -0.119327         0.149096
 C         2.287566        -1.388489         0.001520
 C         3.175220        -0.154659         0.124352
 C         4.603067        -0.088774         0.492451
 O         4.513502         0.092091         2.012057
 C         3.153146         0.038633         2.477081
 C         2.264981         0.463171         1.261904
 O         2.292722         0.489444        -0.910010
 H        -0.804129         0.027933         0.634008
 H        -0.120412         1.184107        -0.428710
 H        -0.320713        -0.299182        -1.101321
 H         2.156654        -2.089807         0.852631
 H         2.157924        -1.715633        -1.035534
 H         5.173533        -0.988451         0.239928
 H         5.108070         0.794175        -0.005726
 H         2.832502        -1.051473         2.831628
 H         3.093657         0.704762         3.374415
 H         2.184293         1.594578         1.289472
