19
Iteration:   967charge 0 multiplicity 1
 C        -0.032839         0.009008        -0.006756
 C         1.438793        -0.163626         0.160742
 C         2.425785        -1.351323         0.098666
 C         3.196275         0.041924         0.034822
 C         4.587852         0.051761         0.592186
 O         4.373496        -0.423823         1.921661
 C         3.040638         0.134795         2.402945
 C         2.287119         0.672178         1.187704
 O         2.317149         0.585309        -1.012752
 H        -0.568856         0.007755         1.024054
 H        -0.228704         0.865973        -0.459755
 H        -0.484796        -0.789325        -0.609065
 H         2.380359        -1.909792         1.065854
 H         2.532203        -2.064664        -0.750328
 H         5.258706        -0.664700         0.159842
 H         5.106484         1.014408         0.516584
 H         2.705703        -0.644807         3.020014
 H         3.257633         0.988683         3.062599
 H         2.089210         1.705328         1.327372
