19
Iteration:  4947
 C        -0.012121         0.026441        -0.024889
 C         1.432465        -0.037907         0.152710
 C         2.328860        -1.328058        -0.106374
 C         3.204445         0.008519         0.049626
 C         4.601841         0.124950         0.562647
 O         4.509699        -0.203724         1.963098
 C         2.997241        -0.266830         2.434685
 C         2.320701         0.453422         1.272172
 O         2.275427         0.752134        -0.879799
 H        -0.157494         0.774219        -0.727847
 H        -0.417377        -0.873143        -0.457655
 H        -0.651094         0.073209         0.849378
 H         2.380418        -1.987269         0.797799
 H         2.242159        -1.927002        -1.088466
 H         5.253474        -0.628029         0.176765
 H         5.024664         1.136282         0.373233
 H         2.716548        -1.312288         2.665496
 H         2.865668         0.481590         3.260421
 H         2.127652         1.564902         1.285779
