19
Iteration:  2284charge 0 multiplicity 1
 C        -0.061893         0.146257        -0.216021
 C         1.371795        -0.139094         0.094831
 C         2.232454        -1.381182         0.267896
 C         3.213886        -0.193075         0.181007
 C         4.587350         0.225066         0.515677
 O         4.481485        -0.250780         1.935956
 C         3.103547         0.142581         2.383217
 C         2.397682         0.598421         1.177699
 O         2.253977         0.379438        -0.940384
 H        -0.560722        -0.416817         0.613899
 H        -0.161596         1.184089        -0.278502
 H        -0.239986        -0.290031        -1.161023
 H         2.080049        -1.744197         1.263589
 H         2.306680        -2.179645        -0.475184
 H         5.393273        -0.546389         0.190701
 H         4.976397         1.139334         0.576856
 H         2.844601        -0.795520         2.885184
 H         3.266289         0.964652         3.201697
 H         2.608885         1.663727         0.950821
