19
Iteration:  3907charge 0 multiplicity 1
 C        -0.101389         0.121646        -0.070495
 C         1.358774        -0.073434         0.028289
 C         2.241832        -1.359108        -0.008614
 C         3.168953        -0.167429         0.189367
 C         4.582595         0.047911         0.523340
 O         4.543994        -0.097126         2.006900
 C         3.089896         0.012173         2.490387
 C         2.357105         0.461771         1.198425
 O         2.374296         0.547569        -0.931625
 H        -0.473317        -0.384039        -0.969149
 H        -0.519361        -0.448360         0.844397
 H        -0.434890         1.192672        -0.134557
 H         2.092035        -2.052061         0.824280
 H         2.379421        -1.816397        -0.953575
 H         5.292728        -0.672737         0.068784
 H         4.976232         0.990532         0.261578
 H         2.736096        -1.093678         2.893731
 H         3.016698         0.815967         3.273398
 H         2.298470         1.575014         1.032768
