19
Iteration:  3048charge 0 multiplicity 1
 C        -0.088288         0.128700        -0.074225
 C         1.334192        -0.039738         0.084915
 C         2.309435        -1.384243         0.051301
 C         3.138134        -0.140420         0.169111
 C         4.536778        -0.131816         0.531599
 O         4.547840         0.022433         1.997516
 C         3.104717         0.052184         2.487644
 C         2.337646         0.506786         1.245246
 O         2.362165         0.470148        -1.040870
 H        -0.558946        -0.070570         0.870618
 H        -0.342249         1.182754        -0.109176
 H        -0.412633        -0.446395        -0.889466
 H         2.286153        -2.073554         0.947944
 H         2.213948        -1.844993        -1.002572
 H         5.197364        -0.963997         0.165366
 H         4.959385         0.733406         0.085758
 H         2.833336        -0.933803         2.943521
 H         3.220512         0.913511         3.153977
 H         2.398443         1.562221         1.132192
