19
Iteration:   177charge 0 multiplicity 1
 C        -0.020967         0.043809        -0.029330
 C         1.439416        -0.195013         0.102316
 C         2.350624        -1.353088         0.311304
 C         3.169917         0.014787         0.113029
 C         4.579097         0.131644         0.532764
 O         4.430523        -0.357693         1.894748
 C         3.006255         0.057819         2.296549
 C         2.263808         0.684767         1.160647
 O         2.397180         0.468803        -0.981198
 H        -0.539120        -0.363417         0.749650
 H        -0.147281         1.147051         0.155247
 H        -0.584143        -0.196523        -0.967295
 H         2.495536        -1.846840         1.221245
 H         2.354643        -2.029845        -0.570763
 H         5.370290        -0.312499         0.009662
 H         4.846367         1.174479         0.585215
 H         2.564358        -0.745998         2.816016
 H         3.232767         0.832153         3.078530
 H         2.131570         1.769004         1.003776
