19
Iteration:  4491
 C        -0.054164         0.015636        -0.049435
 C         1.458587        -0.067910         0.147533
 C         2.266603        -1.245478        -0.045166
 C         3.261723        -0.025241         0.005008
 C         4.619861         0.140433         0.612224
 O         4.465090        -0.307646         1.978623
 C         3.109185        -0.122031         2.478979
 C         2.348728         0.539673         1.206750
 O         2.212886         0.649934        -0.980451
 H        -0.547972         0.516309         0.708731
 H        -0.202613         0.201965        -1.106123
 H        -0.505079        -1.015045         0.111279
 H         2.104523        -1.937677         0.930266
 H         2.321400        -1.767913        -1.078113
 H         5.351164        -0.557528         0.261284
 H         5.149617         1.022689         0.693878
 H         2.653100        -1.105444         2.861131
 H         2.939857         0.572866         3.427499
 H         2.187871         1.610917         1.493814
