19
Iteration:  1223
 C        -0.132977         0.073423         0.048276
 C         1.451892        -0.122844         0.023462
 C         2.441190        -1.395050         0.126236
 C         3.248073        -0.043182         0.088492
 C         4.624581         0.106096         0.576204
 O         4.389291        -0.346441         1.921027
 C         3.055993         0.180142         2.429999
 C         2.242828         0.567640         1.191112
 O         2.335443         0.474992        -1.003108
 H        -0.696799        -0.258964         0.882306
 H        -0.297274         1.302999        -0.069281
 H        -0.637352        -0.270622        -0.876159
 H         2.300769        -1.972755         1.080890
 H         2.515831        -2.058588        -0.758301
 H         5.254166        -0.636824         0.137782
 H         5.152551         1.077967         0.564308
 H         2.743102        -0.641241         3.072288
 H         3.076662         1.132875         2.980760
 H         2.238708         1.696303         1.039008
