19
Iteration:  1547
 C        -0.032104         0.032826         0.007994
 C         1.444600        -0.071304         0.063312
 C         2.243597        -1.379687         0.040886
 C         3.165820        -0.177669         0.084669
 C         4.601350        -0.042580         0.577631
 O         4.432934        -0.001700         1.995736
 C         2.978380         0.035457         2.414733
 C         2.425612         0.556317         1.166661
 O         2.385002         0.536874        -0.944779
 H        -0.475033         0.075958         1.063300
 H        -0.319064         0.955969        -0.481570
 H        -0.620487        -0.708841        -0.493150
 H         2.149480        -2.174082         0.836505
 H         2.175904        -1.764878        -1.004038
 H         5.337278        -0.821962         0.305910
 H         5.063663         0.847106         0.167795
 H         2.763254        -1.029898         2.719735
 H         3.019435         0.800135         3.262851
 H         2.319622         1.656917         1.088550
