19
Iteration:  4006
 C        -0.134076         0.116508        -0.028937
 C         1.317353        -0.132314         0.220432
 C         2.143900        -1.424394        -0.031703
 C         3.246871        -0.164829         0.026516
 C         4.676663         0.031942         0.600905
 O         4.502717        -0.035789         2.022456
 C         3.054451         0.090642         2.404369
 C         2.407021         0.492227         1.148918
 O         2.394656         0.545956        -0.889601
 H        -0.222872         0.273883        -1.163730
 H        -0.811472        -0.827083        -0.084901
 H        -0.608823         0.854110         0.545776
 H         2.239350        -2.277518         0.600813
 H         2.006657        -1.894502        -1.052958
 H         5.473176        -0.716555         0.290415
 H         5.086792         0.969037         0.226815
 H         2.761889        -0.975747         2.613522
 H         3.054056         0.549478         3.379544
 H         2.545575         1.605929         0.993917
