19
Iteration:  4312
 C        -0.087552         0.103789        -0.073624
 C         1.460806        -0.050923         0.059732
 C         2.263454        -1.328834        -0.186435
 C         3.147044        -0.045256         0.110819
 C         4.615498         0.043253         0.572695
 O         4.494509        -0.041961         2.044421
 C         3.125229        -0.222838         2.474060
 C         2.324704         0.391895         1.271759
 O         2.273825         0.663020        -0.879233
 H        -0.372691         1.127191        -0.418981
 H        -0.464178        -0.534233        -0.836648
 H        -0.594803        -0.231058         0.763451
 H         2.291937        -1.961967         0.730879
 H         2.437097        -1.773189        -1.208456
 H         5.279636        -0.835545         0.387043
 H         5.120180         0.918431         0.308544
 H         2.873664        -1.284055         2.685148
 H         2.952186         0.293835         3.503982
 H         2.417069         1.495772         1.249602
