19
Iteration:   423charge 0 multiplicity 1
 C        -0.017700        -0.135457        -0.001710
 C         1.430267        -0.144147         0.155286
 C         2.398991        -1.210177         0.180002
 C         3.217250         0.072084         0.038032
 C         4.590950        -0.040944         0.618704
 O         4.303094        -0.377810         1.950197
 C         3.092735         0.166183         2.385583
 C         2.364900         0.704576         1.121247
 O         2.295534         0.596454        -1.039762
 H        -0.408224        -0.356350         1.125731
 H        -0.333271         0.753681        -0.399079
 H        -0.393864        -0.943723        -0.575924
 H         2.669439        -1.998098         0.926896
 H         2.212782        -1.848622        -0.735493
 H         5.139734        -0.982289         0.258865
 H         5.072791         0.891903         0.603492
 H         2.555068        -0.747124         2.812454
 H         3.127576         0.890467         3.107350
 H         2.272528         1.734359         0.888887
