19
Iteration:  4903
 C        -0.249593         0.095039        -0.107781
 C         1.362414        -0.094343         0.105080
 C         2.360545        -1.307063        -0.090689
 C         3.205113        -0.018714         0.064736
 C         4.685546        -0.012632         0.514097
 O         4.540269        -0.007907         2.005519
 C         3.042809        -0.245448         2.442885
 C         2.317414         0.320010         1.326479
 O         2.319643         0.769920        -0.843802
 H        -0.281019         1.036538        -0.448739
 H        -0.398828        -0.615377        -0.893151
 H        -0.638231        -0.332093         0.771316
 H         2.228677        -2.106538         0.718845
 H         2.483120        -1.817864        -1.077781
 H         5.279806        -0.769001         0.092101
 H         5.023977         0.958784         0.275084
 H         2.930844        -1.346512         2.579365
 H         3.054317         0.378615         3.355673
 H         2.292526         1.429133         1.539473
