19
Iteration:  3294
 C        -0.040222         0.168239        -0.026048
 C         1.425902        -0.103001         0.121533
 C         2.251384        -1.423738         0.088196
 C         3.187365        -0.214362         0.132277
 C         4.601726        -0.013918         0.508611
 O         4.448060         0.005796         1.941476
 C         3.095518         0.026775         2.460855
 C         2.338971         0.615729         1.151374
 O         2.349064         0.438461        -0.941059
 H        -0.476103         0.119986         0.979721
 H        -0.188098         1.029298        -0.529318
 H        -0.551474        -0.653780        -0.612367
 H         2.016721        -2.306477         0.784178
 H         2.240507        -1.881147        -0.945943
 H         5.364323        -0.747366         0.294852
 H         4.901736         1.092655         0.333659
 H         2.696439        -1.008405         2.652933
 H         2.906375         0.668746         3.378298
 H         2.436115         1.746267         0.967917
