19
Iteration:  3159
 C        -0.068579         0.128205         0.042110
 C         1.401951        -0.106951         0.191336
 C         2.338031        -1.368355         0.054479
 C         3.197531        -0.104382         0.009253
 C         4.661010         0.042615         0.582986
 O         4.355783        -0.208184         2.013705
 C         3.064809         0.136213         2.416446
 C         2.448563         0.565607         1.091647
 O         2.264370         0.429681        -1.019667
 H        -0.590873        -0.388649         0.808430
 H        -0.293107         1.252634         0.113992
 H        -0.435663        -0.307978        -0.817497
 H         2.422642        -2.075104         0.964897
 H         2.319805        -1.688754        -1.024313
 H         5.367907        -0.883796         0.559608
 H         5.176919         0.985839         0.268910
 H         2.570960        -0.740943         2.911632
 H         3.145982         0.975992         3.177643
 H         2.294377         1.639658         1.020306
