19
Iteration:  3475charge 0 multiplicity 1
 C        -0.159895         0.094144        -0.002688
 C         1.326700        -0.076728         0.088082
 C         2.340152        -1.369907         0.094706
 C         3.201810        -0.140454         0.116020
 C         4.604772        -0.053847         0.610384
 O         4.518798        -0.225975         2.055548
 C         3.126894         0.252689         2.373324
 C         2.333153         0.637309         1.094084
 O         2.332476         0.401670        -1.033039
 H        -0.534963        -0.870872         0.440031
 H        -0.630351         0.872324         0.711047
 H        -0.477822         0.359293        -1.044169
 H         2.176934        -2.071859         0.938941
 H         2.482368        -1.947124        -0.779806
 H         5.299288        -0.872609         0.231959
 H         4.919704         0.997553         0.327831
 H         2.664347        -0.424504         2.955160
 H         3.074412         1.174382         2.957361
 H         2.550469         1.680503         0.964273
