19
Iteration:  3733charge 0 multiplicity 1
 C        -0.035905         0.076823        -0.099742
 C         1.435546        -0.024749         0.193030
 C         2.179223        -1.433263         0.132239
 C         3.219098        -0.160357         0.082471
 C         4.676192         0.116104         0.500815
 O         4.452050        -0.170394         1.930257
 C         3.047392        -0.020251         2.414721
 C         2.295172         0.600322         1.181695
 O         2.389496         0.514392        -0.902819
 H        -0.067724         0.597047        -1.095706
 H        -0.689101        -0.910297        -0.076208
 H        -0.660252         0.700694         0.707574
 H         2.138611        -2.020471         1.078010
 H         2.153044        -1.984192        -0.761344
 H         5.332692        -0.603456        -0.065020
 H         4.862706         1.282203         0.295316
 H         2.678005        -0.933518         2.761023
 H         3.056531         0.623122         3.280722
 H         2.360345         1.721559         1.126839
