19
Iteration:  4438charge 0 multiplicity 1
 C        -0.000907        -0.016577        -0.048131
 C         1.416561        -0.127586         0.139240
 C         2.331206        -1.260363        -0.025250
 C         3.145099         0.068342         0.122645
 C         4.635773         0.102886         0.557097
 O         4.400028        -0.358567         1.904542
 C         3.075962        -0.101202         2.482287
 C         2.262851         0.518136         1.280141
 O         2.324235         0.695691        -1.014088
 H        -0.292175         1.004095         0.235620
 H        -0.335309        -0.262138        -1.075273
 H        -0.453448        -0.648815         0.750632
 H         2.577731        -1.955878         0.851223
 H         2.576472        -1.578302        -1.105814
 H         5.211068        -0.716647         0.159335
 H         5.285871         1.024162         0.712611
 H         2.660557        -0.944446         3.013572
 H         3.134941         0.770342         3.037085
 H         2.067096         1.543763         1.621641
