19
Iteration:  1548charge 0 multiplicity 1
 C        -0.037790         0.028781         0.016507
 C         1.435157        -0.069278         0.059138
 C         2.235517        -1.381776         0.033025
 C         3.177957        -0.178989         0.091990
 C         4.616247        -0.043453         0.579255
 O         4.434588         0.005795         1.994577
 C         2.974233         0.033133         2.415449
 C         2.425143         0.558276         1.176684
 O         2.382633         0.533742        -0.949200
 H        -0.473264         0.061157         1.066211
 H        -0.307898         0.984892        -0.528490
 H        -0.638947        -0.714673        -0.528859
 H         2.129267        -2.175792         0.828165
 H         2.159426        -1.783862        -1.011125
 H         5.323555        -0.817744         0.293847
 H         5.113502         0.860333         0.177787
 H         2.742126        -1.002578         2.700062
 H         3.041095         0.768101         3.271818
 H         2.345981         1.666757         1.092416
