19
Iteration:  3301
 C        -0.039936         0.169008         0.021054
 C         1.393807        -0.069154         0.132770
 C         2.261448        -1.432366         0.038390
 C         3.239961        -0.187367         0.108758
 C         4.640585        -0.020950         0.511242
 O         4.401160         0.030314         1.935053
 C         3.048476         0.002065         2.433473
 C         2.371313         0.579505         1.178285
 O         2.352756         0.416988        -0.925449
 H        -0.722554         0.216135         0.897087
 H        -0.247990         1.144675        -0.569701
 H        -0.381382        -0.715431        -0.472915
 H         2.267706        -2.068120         0.968012
 H         2.062329        -1.926009        -0.878552
 H         5.538722        -0.757979         0.389553
 H         5.074564         0.891182         0.109369
 H         2.697233        -0.966346         2.642940
 H         2.767495         0.719291         3.214154
 H         2.320757         1.652593         1.011009
