19
Iteration:   748charge 0 multiplicity 1
 C        -0.028190        -0.045311         0.023493
 C         1.466965        -0.025242         0.040372
 C         2.294468        -1.254868         0.111193
 C         3.222802        -0.048910         0.060379
 C         4.613563         0.035313         0.602927
 O         4.415270        -0.243522         1.945423
 C         2.990161         0.028870         2.454486
 C         2.390005         0.643434         1.173619
 O         2.294751         0.500781        -1.038321
 H        -0.288214        -0.597445         1.092864
 H        -0.567092         0.857796         0.120042
 H        -0.451046        -0.664211        -0.747140
 H         2.296742        -1.874261         1.017001
 H         2.434070        -1.958948        -0.767138
 H         5.110403        -0.781311         0.172700
 H         5.048527         1.022525         0.379910
 H         2.461500        -0.884820         2.902982
 H         3.170798         0.890856         3.180457
 H         2.451390         1.710471         1.079926
