19
Iteration:   474
 C        -0.070751         0.046412        -0.023854
 C         1.385527        -0.197755         0.053707
 C         2.339065        -1.396962         0.017421
 C         3.154124        -0.050920         0.000295
 C         4.549654         0.084472         0.608177
 O         4.448893        -0.254223         2.025699
 C         3.151736         0.146933         2.440740
 C         2.327640         0.574920         1.216839
 O         2.340789         0.495810        -0.963328
 H        -0.566296        -0.345582         0.855269
 H        -0.078566         1.204912        -0.033812
 H        -0.559719        -0.253822        -0.978716
 H         2.195118        -2.027609         0.905861
 H         2.374908        -2.047706        -0.842750
 H         5.499267        -0.441550         0.249346
 H         4.936070         1.243334         0.489679
 H         2.639794        -0.668128         2.993176
 H         3.164143         1.137698         3.113860
 H         2.141758         1.671487         1.039915
