19
Iteration:   108charge 0 multiplicity 1
 C        -0.124543        -0.069754        -0.120916
 C         1.353041        -0.034019         0.052790
 C         2.223960        -1.306320        -0.001315
 C         3.222052        -0.112817         0.113580
 C         4.651975        -0.204811         0.585204
 O         4.501506         0.111449         2.002431
 C         3.118961         0.013888         2.514553
 C         2.359518         0.535408         1.185405
 O         2.336209         0.583473        -0.942212
 H        -0.607732        -0.588456         0.829878
 H        -0.551930         0.887249        -0.088773
 H        -0.477498        -0.571974        -0.968901
 H         2.198000        -2.026637         0.819906
 H         2.061752        -1.806327        -0.927537
 H         5.229423        -1.058603         0.301127
 H         5.255612         0.626154         0.148570
 H         2.891806        -0.941387         3.033782
 H         3.012725         0.761615         3.285988
 H         2.353553         1.589386         1.201576
