19
Iteration:   675
 C        -0.087346        -0.022417        -0.113186
 C         1.363575        -0.124042         0.061436
 C         2.412510        -1.367403         0.123148
 C         3.194528        -0.023944         0.103951
 C         4.631577         0.025263         0.629589
 O         4.436072        -0.325968         1.942567
 C         3.153142         0.215371         2.416425
 C         2.335898         0.554547         1.174493
 O         2.223313         0.569339        -0.921093
 H        -0.750957        -0.418156         0.673853
 H        -0.244423         1.031866        -0.051633
 H        -0.368785        -0.374596        -1.130086
 H         2.386164        -1.957865         1.046046
 H         2.301920        -1.997935        -0.778854
 H         5.161818        -0.812107         0.095017
 H         4.995043         1.072380         0.435074
 H         2.758155        -0.487827         3.195458
 H         3.329514         1.158401         2.859624
 H         2.257629         1.631470         1.113073
