19
Iteration:  4505
 C        -0.116848         0.014800        -0.034501
 C         1.371413        -0.086167         0.156558
 C         2.352303        -1.295417        -0.042521
 C         3.148335         0.051462         0.106831
 C         4.641154         0.068297         0.573731
 O         4.484413        -0.250046         1.988902
 C         3.063401        -0.125386         2.438630
 C         2.325808         0.507865         1.271712
 O         2.341418         0.640399        -0.986688
 H        -0.598151         0.814052         0.618589
 H        -0.317785         0.476175        -1.027093
 H        -0.545318        -0.958406         0.070901
 H         2.481597        -2.167599         0.690251
 H         2.343538        -1.694328        -1.181525
 H         5.236481        -0.692139         0.088840
 H         4.955556         1.125383         0.354817
 H         2.754191        -1.134167         2.724964
 H         3.160665         0.551305         3.222757
 H         2.314724         1.645101         1.312022
