19
Iteration:  4712
 C        -0.054378         0.031117        -0.046604
 C         1.486338        -0.074878         0.084349
 C         2.404406        -1.302649        -0.004522
 C         3.167661         0.044863         0.089516
 C         4.634185         0.193937         0.542342
 O         4.409550        -0.401809         1.984467
 C         3.098038        -0.138813         2.437216
 C         2.336194         0.494153         1.245548
 O         2.203705         0.691577        -0.917780
 H        -0.274785         1.073232        -0.471445
 H        -0.587260        -0.662393        -0.725156
 H        -0.550227        -0.312074         0.836427
 H         2.496655        -1.930092         0.862581
 H         2.506512        -1.765133        -1.073910
 H         5.271675        -0.563309         0.019444
 H         5.077115         1.191755         0.432669
 H         2.627999        -1.078558         2.976013
 H         2.912751         0.707471         3.135238
 H         2.260889         1.563212         1.320135
