19
Iteration:  3958charge 0 multiplicity 1
 C        -0.168134         0.090069        -0.135626
 C         1.358936        -0.143982         0.133175
 C         2.352398        -1.302556         0.094752
 C         3.191193        -0.008381         0.130694
 C         4.622992        -0.130536         0.510474
 O         4.502006        -0.023195         1.991776
 C         3.107964        -0.094207         2.419600
 C         2.297602         0.647462         1.254513
 O         2.355346         0.514010        -0.969019
 H        -0.480745         0.385238        -1.121113
 H        -0.753370        -0.784543         0.000500
 H        -0.501594         0.865386         0.644707
 H         2.335854        -2.047727         1.006352
 H         2.390268        -1.888517        -0.831329
 H         5.140826        -1.104407         0.209207
 H         5.381128         0.599157         0.077308
 H         2.814191        -1.021962         2.685962
 H         3.019664         0.558051         3.341577
 H         2.208415         1.734517         1.284297
