19
Iteration:  4886
 C        -0.025256         0.071019        -0.112118
 C         1.424904        -0.177966         0.081031
 C         2.274336        -1.325752        -0.116806
 C         3.154010        -0.037245         0.113549
 C         4.559377         0.050177         0.557987
 O         4.474030         0.000354         1.990731
 C         3.170330        -0.269236         2.430274
 C         2.268012         0.406453         1.247102
 O         2.297088         0.738694        -0.810250
 H        -0.257529         1.258250         0.081788
 H        -0.481613        -0.163770        -1.126293
 H        -0.614541        -0.323837         0.788555
 H         2.455378        -1.939015         0.713233
 H         2.361070        -1.835571        -1.113760
 H         5.044206        -0.971724         0.236780
 H         5.219414         0.931316         0.219358
 H         3.068574        -1.343886         2.594711
 H         3.124998         0.287264         3.423169
 H         2.255639         1.512325         1.437738
