19
Iteration:  1509charge 0 multiplicity 1
 C        -0.138736         0.083212        -0.104451
 C         1.386508        -0.189102         0.133778
 C         2.314947        -1.361529         0.183000
 C         3.295137         0.025357         0.115731
 C         4.682084         0.072374         0.594480
 O         4.448140        -0.290289         1.915171
 C         3.055819         0.116722         2.453237
 C         2.344690         0.630231         1.126440
 O         2.267375         0.432008        -0.983331
 H        -0.554088        -0.037369         0.836628
 H        -0.142511         1.170114        -0.428003
 H        -0.592123        -0.494661        -0.951297
 H         2.300178        -2.106265         0.934315
 H         2.414802        -1.742875        -0.817784
 H         5.401892        -0.689984         0.277981
 H         5.031334         1.131734         0.437361
 H         2.696714        -0.793583         2.970065
 H         2.983113         0.902677         3.158422
 H         2.151677         1.690789         1.195299
