19
Iteration:  3957charge 0 multiplicity 1
 C        -0.169648         0.086335        -0.131478
 C         1.354444        -0.149421         0.142711
 C         2.342524        -1.302390         0.099237
 C         3.195986        -0.002451         0.129933
 C         4.622618        -0.133755         0.506686
 O         4.504493        -0.024926         2.002119
 C         3.101116        -0.085249         2.404856
 C         2.300631         0.640980         1.253486
 O         2.356679         0.517884        -0.970555
 H        -0.449747         0.397528        -1.161834
 H        -0.741833        -0.792700         0.002360
 H        -0.489011         0.877269         0.624336
 H         2.335767        -2.046467         1.000402
 H         2.398063        -1.879681        -0.851301
 H         5.159103        -1.071036         0.217421
 H         5.368526         0.595378         0.051498
 H         2.837302        -1.055932         2.681252
 H         3.018456         0.561143         3.315837
 H         2.239467         1.721214         1.303333
