19
Iteration:  3876charge 0 multiplicity 1
 C        -0.057056         0.154191        -0.072325
 C         1.370865        -0.206765         0.258661
 C         2.353193        -1.332662         0.050564
 C         3.208321        -0.057678         0.094266
 C         4.652661         0.061879         0.493729
 O         4.395012        -0.175234         1.989175
 C         3.039072        -0.026302         2.442495
 C         2.328268         0.493857         1.197801
 O         2.316478         0.566327        -1.015476
 H        -0.403050        -0.673334        -0.724740
 H        -0.460257         0.437966         0.934324
 H        -0.028905         1.043065        -0.659412
 H         2.424770        -1.994395         0.873750
 H         2.412072        -1.781345        -0.935132
 H         5.282133        -0.752455         0.222918
 H         5.047810         1.072691         0.400205
 H         2.765156        -1.010261         2.758684
 H         3.086994         0.601755         3.286109
 H         2.165878         1.593019         1.233015
