19
Iteration:  3696
 C        -0.179651         0.138097        -0.131330
 C         1.408333        -0.086501         0.077827
 C         2.306283        -1.397591         0.015138
 C         3.215157        -0.137233         0.151058
 C         4.678158        -0.057570         0.529712
 O         4.551890        -0.012984         2.025187
 C         3.094920         0.010699         2.474998
 C         2.309123         0.530572         1.277560
 O         2.225921         0.505636        -0.976973
 H        -0.334791         0.938328        -0.872366
 H        -0.710677        -0.728519        -0.414538
 H        -0.474153         0.657459         0.839586
 H         2.217906        -2.044819         0.852044
 H         2.432009        -1.939641        -0.983271
 H         5.220679        -1.064972         0.354387
 H         5.418618         0.743026         0.217297
 H         2.858703        -1.059357         2.690576
 H         3.160079         0.838095         3.175882
 H         2.202201         1.610374         1.184149
