19
Iteration:  2829charge 0 multiplicity 1
 C        -0.001949         0.086256         0.036644
 C         1.400668        -0.062257         0.122960
 C         2.238211        -1.358761         0.056059
 C         3.217829        -0.103437         0.083139
 C         4.607512        -0.013045         0.577457
 O         4.421926        -0.178462         2.010648
 C         3.067429         0.088455         2.454642
 C         2.337338         0.559244         1.116439
 O         2.365469         0.515411        -1.092382
 H        -0.508457        -0.311633         0.980006
 H        -0.501731         1.005588        -0.089605
 H        -0.478917        -0.723439        -0.639009
 H         2.254266        -1.933293         1.071808
 H         2.266146        -2.024039        -0.832932
 H         5.296026        -0.836608         0.219655
 H         4.895498         1.051688         0.318727
 H         2.776824        -0.690582         3.092189
 H         3.104976         0.886963         3.208666
 H         2.320184         1.661518         1.152840
