19
Iteration:   329
 C        -0.039810         0.295741        -0.060138
 C         1.348842        -0.249849         0.051762
 C         2.305129        -1.503018        -0.021275
 C         3.088643        -0.180707         0.132956
 C         4.530441         0.031657         0.504281
 O         4.537768         0.166783         2.019141
 C         3.159990         0.038483         2.444977
 C         2.261015         0.410546         1.235017
 O         2.401127         0.407098        -0.880123
 H        -0.806075        -0.328101         0.335249
 H        -0.068456         1.368574         0.265932
 H        -0.311324         0.376343        -1.166349
 H         2.294879        -2.129350         0.791893
 H         2.231581        -2.130770        -0.859807
 H         5.169333        -0.748610         0.312410
 H         4.747257         1.046377         0.102870
 H         3.048123        -1.009020         2.614100
 H         3.112897         0.593995         3.440140
 H         2.137360         1.499371         1.045544
