19
Iteration:  2459charge 0 multiplicity 1
 C        -0.146541         0.249560        -0.253741
 C         1.335424        -0.109386         0.123062
 C         2.140451        -1.440550         0.135606
 C         3.214052        -0.225254         0.130355
 C         4.647126         0.038310         0.529107
 O         4.549249         0.069404         1.967628
 C         3.140435        -0.004470         2.470911
 C         2.422945         0.526610         1.246510
 O         2.290514         0.381528        -0.904822
 H        -0.746137         0.079351         0.720216
 H        -0.186429         1.270517        -0.559806
 H        -0.340219        -0.564840        -1.035674
 H         2.195453        -2.085991         0.995682
 H         2.154482        -1.965293        -0.819923
 H         5.457559        -0.679253         0.341730
 H         4.758034         1.124198         0.131328
 H         2.936971        -1.008192         2.630453
 H         3.161521         0.416164         3.534045
 H         2.550567         1.616290         1.030809
