19
Iteration:   128charge 0 multiplicity 1
 C        -0.070871        -0.039273        -0.093502
 C         1.372302        -0.090564         0.024156
 C         2.210271        -1.419209        -0.065063
 C         3.201051        -0.198014         0.142868
 C         4.692998        -0.087026         0.651921
 O         4.578199        -0.070100         2.085476
 C         3.113188         0.216335         2.393196
 C         2.368950         0.535262         1.164928
 O         2.203423         0.683447        -0.903744
 H        -0.659468        -0.689076         0.875620
 H        -0.697108         0.857731        -0.096670
 H        -0.436325        -0.486823        -1.019171
 H         2.005890        -2.263254         0.691512
 H         2.309459        -1.952177        -1.000456
 H         5.282778        -1.070607         0.372557
 H         5.325274         0.744178         0.166510
 H         2.701090        -0.683156         2.973353
 H         3.080389         0.967849         3.155426
 H         2.355964         1.598063         0.908388
