19
Iteration:  4190charge 0 multiplicity 1
 C        -0.064773         0.044344        -0.068846
 C         1.397571        -0.059243         0.096837
 C         2.314318        -1.381551        -0.033273
 C         3.156862        -0.001660         0.074209
 C         4.609714         0.143058         0.609152
 O         4.463780        -0.283384         1.984789
 C         3.070699        -0.069342         2.409669
 C         2.327864         0.567384         1.232375
 O         2.360586         0.586193        -0.911272
 H        -0.552876        -0.103593         0.918714
 H        -0.383292         0.973394        -0.573303
 H        -0.366527        -0.728339        -0.690084
 H         2.242382        -2.171839         0.728510
 H         2.051309        -1.745890        -1.097574
 H         5.448932        -0.482551         0.161025
 H         4.967466         1.147171         0.415269
 H         2.711644        -1.006043         2.827858
 H         3.034119         0.534514         3.413517
 H         2.337586         1.656740         1.429985
