19
Iteration:  4757
 C        -0.108803        -0.018648        -0.070518
 C         1.429514         0.013135         0.083033
 C         2.383682        -1.295888        -0.006183
 C         3.159923         0.015314         0.176984
 C         4.612387         0.149482         0.505999
 O         4.425576        -0.342524         1.904286
 C         3.097459        -0.097761         2.468872
 C         2.333420         0.523081         1.204869
 O         2.304145         0.628673        -0.857852
 H        -0.517144         0.764370         0.611361
 H        -0.392634        -0.071333        -1.131297
 H        -0.315832        -1.049309         0.235468
 H         2.211162        -2.067322         0.771504
 H         2.409075        -1.517313        -1.144418
 H         5.263333        -0.533827        -0.002374
 H         5.124791         1.133424         0.622714
 H         2.424211        -0.987192         2.919727
 H         3.281008         0.536945         3.336439
 H         2.369178         1.584717         1.233086
