19
Iteration:  2216
 C        -0.066860        -0.025837         0.072829
 C         1.430372         0.003037         0.001085
 C         2.215682        -1.353710         0.008269
 C         3.215079        -0.217443         0.101553
 C         4.710853        -0.228967         0.657158
 O         4.450113         0.135090         2.066450
 C         3.049173         0.085055         2.373505
 C         2.370634         0.560896         1.141438
 O         2.250656         0.553077        -1.043033
 H        -0.297682         0.148111         1.146065
 H        -0.534897         0.916193        -0.512260
 H        -0.530510        -0.866418        -0.433916
 H         2.192681        -1.912423         0.933083
 H         2.296168        -1.907833        -0.873767
 H         5.323896        -1.258072         0.617728
 H         5.359725         0.566363         0.193281
 H         2.668851        -1.029229         2.529060
 H         3.032723         0.715910         3.354505
 H         2.599004         1.588312         0.949807
