19
Iteration:  2285charge 0 multiplicity 1
 C        -0.060114         0.149847        -0.218031
 C         1.373997        -0.143437         0.090169
 C         2.233254        -1.381050         0.268352
 C         3.215276        -0.198320         0.189144
 C         4.581615         0.226224         0.520366
 O         4.477709        -0.255095         1.939422
 C         3.110408         0.144414         2.385050
 C         2.403383         0.601668         1.166177
 O         2.248221         0.382046        -0.941094
 H        -0.580749        -0.398345         0.589307
 H        -0.205041         1.168793        -0.213982
 H        -0.246415        -0.301386        -1.180518
 H         2.069336        -1.736317         1.284232
 H         2.324157        -2.205008        -0.480897
 H         5.443187        -0.519114         0.174722
 H         4.949797         1.145603         0.548466
 H         2.855988        -0.816139         2.883929
 H         3.287737         0.957860         3.227780
 H         2.612305         1.705924         0.927938
