19
Iteration:  1522
 C        -0.078618         0.095944        -0.034226
 C         1.401822        -0.152582         0.143549
 C         2.374337        -1.392929         0.101385
 C         3.140850        -0.088605         0.024905
 C         4.647775         0.049587         0.548177
 O         4.430643        -0.193943         2.002783
 C         3.015637         0.115571         2.434250
 C         2.319112         0.545019         1.213431
 O         2.359952         0.525621        -1.019083
 H        -0.716090         0.106528         0.850652
 H        -0.148831         1.051935        -0.482653
 H        -0.582257        -0.581463        -0.693188
 H         2.454637        -1.875095         1.076334
 H         2.308671        -2.122368        -0.700191
 H         5.313227        -0.746264         0.100213
 H         5.174202         0.970066         0.375958
 H         2.629717        -0.872847         2.905979
 H         3.235257         0.911817         3.151975
 H         2.255079         1.618880         1.047691
