19
Iteration:   533charge 0 multiplicity 1
 C        -0.125180         0.051905        -0.195156
 C         1.327528        -0.077313         0.165524
 C         2.171231        -1.338828         0.037375
 C         3.114599        -0.145038         0.081327
 C         4.658108        -0.095731         0.601077
 O         4.609007         0.235840         2.015837
 C         3.161000        -0.141010         2.428041
 C         2.317326         0.504468         1.252945
 O         2.336384         0.526432        -0.965228
 H        -0.780361        -0.659109         0.478346
 H        -0.478586         0.990691         0.043569
 H        -0.221763        -0.184153        -1.244016
 H         2.155506        -1.893249         0.983831
 H         2.107287        -1.894052        -0.933036
 H         5.140530        -1.099228         0.696550
 H         5.285311         0.618582         0.117188
 H         3.097447        -1.254033         2.655258
 H         3.051295         0.360774         3.294307
 H         2.448988         1.567897         1.197704
