19
Iteration:  4213
 C        -0.058524         0.036029        -0.040317
 C         1.395791        -0.124431         0.154367
 C         2.335544        -1.271497        -0.091402
 C         3.189283        -0.071502         0.099020
 C         4.598979         0.073175         0.542583
 O         4.444305        -0.175064         1.985701
 C         3.022565        -0.103028         2.441447
 C         2.308764         0.473658         1.269425
 O         2.375798         0.639785        -0.934086
 H        -0.679716         0.362742         0.831857
 H        -0.113520         0.762792        -0.837958
 H        -0.525856        -0.794110        -0.443201
 H         2.175342        -1.985185         0.750330
 H         2.193580        -1.748003        -1.148847
 H         5.420410        -0.561515         0.063668
 H         4.997100         1.068268         0.349569
 H         2.784828        -0.989636         2.942867
 H         3.120138         0.544512         3.410725
 H         2.422677         1.591289         1.307189
