19
Iteration:   193charge 0 multiplicity 1
 C        -0.088101         0.082265        -0.052014
 C         1.422943        -0.055449         0.107225
 C         2.401612        -1.292441         0.282011
 C         3.204036        -0.066015         0.083151
 C         4.576167         0.258498         0.580052
 O         4.391653        -0.405403         1.853371
 C         3.053556         0.065895         2.428243
 C         2.361443         0.623651         1.140542
 O         2.323565         0.388172        -1.039310
 H        -0.437475        -0.506534         0.889451
 H        -0.432102         1.103961        -0.156083
 H        -0.329305        -0.438182        -0.965384
 H         2.167659        -1.756533         1.310234
 H         2.574458        -2.145690        -0.361460
 H         5.375834        -0.412897         0.113313
 H         4.748595         1.370130         0.620067
 H         2.564187        -0.915517         2.789020
 H         3.137397         0.678425         3.315148
 H         2.431240         1.726884         1.129908
