19
Iteration:   440charge 0 multiplicity 1
 C        -0.105918        -0.074820         0.035638
 C         1.405880        -0.075153         0.147261
 C         2.441055        -1.354588         0.035801
 C         3.259169        -0.042563         0.015084
 C         4.715284         0.074556         0.631232
 O         4.330437        -0.455105         1.971817
 C         3.019915         0.243620         2.395856
 C         2.405873         0.655042         1.105230
 O         2.223952         0.553560        -0.964257
 H        -0.615184        -0.262321         0.910270
 H        -0.402179         0.989248        -0.388240
 H        -0.439447        -0.866590        -0.700509
 H         2.407212        -1.975507         0.952935
 H         2.488573        -1.947530        -0.855836
 H         5.416323        -0.677699         0.266618
 H         4.925532         1.229202         0.763655
 H         2.401469        -0.369439         3.022435
 H         3.332254         1.224425         3.022791
 H         2.341201         1.791675         1.038835
