19
Iteration:  3135
 C        -0.116455         0.113530        -0.000530
 C         1.426671        -0.105529         0.106292
 C         2.326678        -1.397435         0.134014
 C         3.156386        -0.107556         0.071280
 C         4.594811         0.011288         0.542432
 O         4.538188        -0.190934         1.967286
 C         3.001104         0.076933         2.414115
 C         2.298870         0.584962         1.119814
 O         2.391604         0.502872        -0.956601
 H        -0.583145         0.082270         0.984849
 H        -0.177946         1.181448        -0.395332
 H        -0.706732        -0.612103        -0.597707
 H         2.209036        -1.787156         1.177375
 H         2.316527        -2.038760        -0.818163
 H         5.407009        -0.803843         0.113921
 H         4.949728         1.068537         0.283499
 H         2.521348        -0.789974         2.809939
 H         3.164120         0.791176         3.226472
 H         2.197203         1.633025         0.944521
