19
Iteration:  3485charge 0 multiplicity 1
 C        -0.115772         0.048073         0.013265
 C         1.398059        -0.181944         0.115028
 C         2.263516        -1.281859         0.138163
 C         3.219569        -0.097044         0.110513
 C         4.655316        -0.070267         0.597897
 O         4.497468        -0.255762         2.039263
 C         3.083231         0.243222         2.463222
 C         2.299652         0.619378         1.014458
 O         2.308569         0.477542        -1.089946
 H        -0.686941        -0.821318         0.381872
 H        -0.363161         1.028320         0.594489
 H        -0.446652         0.105835        -1.020326
 H         2.390843        -1.731683         1.176457
 H         2.243573        -1.938892        -0.696163
 H         5.273566        -0.971320         0.276675
 H         5.240778         0.891988         0.260571
 H         2.719979        -0.511539         3.127908
 H         3.314941         1.196819         3.012443
 H         2.198236         1.675815         0.813509
