19
Iteration:  2517
 C        -0.115518        -0.010222         0.010712
 C         1.387945        -0.086677         0.155830
 C         2.310267        -1.290285         0.063267
 C         3.253741        -0.028482         0.094136
 C         4.678062        -0.191682         0.574147
 O         4.446991        -0.138135         2.078653
 C         2.992250         0.163577         2.359023
 C         2.407245         0.671122         1.047792
 O         2.235678         0.482340        -0.992229
 H        -0.504630        -0.781423         0.622780
 H        -0.455302         0.995032         0.355668
 H        -0.536405        -0.117684        -1.002829
 H         2.583054        -2.085103         0.836849
 H         2.238737        -1.715164        -0.951971
 H         5.286058        -1.167696         0.445391
 H         5.448150         0.532901         0.446198
 H         2.560810        -0.758790         2.711007
 H         3.206168         0.938548         3.149449
 H         2.700996         1.762228         0.897812
