19
Iteration:  3668charge 0 multiplicity 1
 C        -0.066583         0.083408        -0.069329
 C         1.412480        -0.078275         0.152177
 C         2.246372        -1.411141        -0.014851
 C         3.175780        -0.164710         0.056426
 C         4.555395        -0.159038         0.540140
 O         4.493291         0.125005         2.045846
 C         3.119410        -0.013744         2.431139
 C         2.380724         0.524500         1.175342
 O         2.317554         0.586834        -0.923332
 H        -0.263872         1.034618        -0.557433
 H        -0.634417        -0.732329        -0.651972
 H        -0.684126         0.101953         0.888728
 H         2.230954        -2.040175         0.930007
 H         2.258359        -1.971460        -0.925694
 H         4.999953        -1.140241         0.525054
 H         5.304617         0.566605         0.220626
 H         2.885152        -1.078965         2.595753
 H         3.067085         0.707454         3.251532
 H         2.406723         1.638536         1.064387
