19
Iteration:  1078charge 0 multiplicity 1
 C        -0.096211         0.269228         0.005990
 C         1.376491        -0.153227         0.063933
 C         2.230001        -1.448418        -0.047661
 C         3.187451        -0.196316         0.116734
 C         4.735478        -0.052147         0.650853
 O         4.451709         0.221205         2.019347
 C         3.086550        -0.045734         2.498083
 C         2.363302         0.389308         1.164062
 O         2.275410         0.484311        -1.035924
 H        -0.703761        -0.545231         0.437429
 H        -0.214844         1.208625         0.498029
 H        -0.298471         0.354444        -1.089663
 H         2.269378        -2.301290         0.697760
 H         2.163594        -2.066889        -0.953329
 H         5.211380        -0.985028         0.356628
 H         5.322444         0.762406         0.186965
 H         3.059049        -1.056979         2.735696
 H         3.024458         0.539161         3.398225
 H         2.357391         1.495279         1.124874
