19
Iteration:  3111charge 0 multiplicity 1
 C        -0.071902         0.087223        -0.135549
 C         1.457587        -0.006871         0.097490
 C         2.194706        -1.373640         0.149728
 C         3.161246        -0.053246         0.160502
 C         4.643529         0.017586         0.456983
 O         4.452127        -0.106198         1.965276
 C         3.135397        -0.030600         2.474403
 C         2.366280         0.586528         1.245378
 O         2.317324         0.418513        -0.984322
 H        -0.634886         0.195549         0.859443
 H        -0.261036         0.929424        -0.773444
 H        -0.547908        -0.918184        -0.562211
 H         2.067309        -1.909448         1.084588
 H         2.111419        -1.841621        -0.849792
 H         5.362485        -0.810585        -0.023297
 H         5.064525         1.078020         0.353813
 H         2.658870        -0.901337         2.862115
 H         3.154488         0.622457         3.328828
 H         2.498373         1.669170         1.188240
