19
Iteration:   641
 C        -0.019309         0.012600        -0.035415
 C         1.430375        -0.069789         0.130533
 C         2.189021        -1.335930         0.093701
 C         3.189242        -0.083615         0.104986
 C         4.583616         0.075413         0.554966
 O         4.475126        -0.039052         1.941437
 C         3.022438        -0.015163         2.437816
 C         2.390995         0.557469         1.207261
 O         2.379069         0.429130        -0.988263
 H        -0.654576        -0.449085         0.838423
 H        -0.267477         1.013895        -0.106221
 H        -0.400676        -0.387853        -0.967830
 H         2.055971        -1.987683         0.956550
 H         2.055631        -1.779318        -0.910559
 H         5.284673        -0.675365         0.095877
 H         5.155739         1.045813         0.257407
 H         2.659929        -1.062573         2.747851
 H         2.995635         0.576479         3.287548
 H         2.440766         1.609502         1.175013
