19
Iteration:  3932charge 0 multiplicity 1
 C        -0.037265         0.056142        -0.109409
 C         1.404653        -0.064727         0.230422
 C         2.185374        -1.368782         0.025016
 C         3.200697        -0.180656         0.031684
 C         4.608527        -0.019182         0.576264
 O         4.474521        -0.033164         1.984164
 C         3.083279        -0.036636         2.444550
 C         2.394361         0.591300         1.198705
 O         2.324264         0.589614        -0.922554
 H        -0.203839        -0.023389        -1.263092
 H        -0.520315        -0.911208         0.277358
 H        -0.514450         0.932954         0.227269
 H         2.189144        -1.994094         0.878499
 H         1.885513        -1.961733        -0.887664
 H         5.281082        -0.782537         0.266162
 H         5.200758         0.825626         0.232158
 H         2.739615        -1.136092         2.755762
 H         3.048615         0.585292         3.304484
 H         2.464505         1.676688         1.013146
