19
Iteration:  2393
 C        -0.052986         0.133605         0.023029
 C         1.380805        -0.065609         0.096565
 C         2.223328        -1.379554         0.056279
 C         3.172676        -0.169749         0.102101
 C         4.601064        -0.141099         0.563308
 O         4.501463         0.094291         2.034144
 C         3.033070         0.059211         2.374371
 C         2.408284         0.567667         1.112633
 O         2.366859         0.441617        -0.966545
 H        -0.581095        -0.262836         0.946967
 H        -0.586743         1.001541        -0.255384
 H        -0.457955        -0.553099        -0.710019
 H         2.252158        -2.027767         0.881301
 H         2.249971        -1.859699        -0.932003
 H         5.086384        -1.061727         0.466819
 H         5.212708         0.732202         0.287608
 H         2.736223        -0.937831         2.486023
 H         2.943060         0.546562         3.370484
 H         2.486590         1.638384         0.988786
