19
Iteration:  2243charge 0 multiplicity 1
 C        -0.095083         0.001206        -0.038401
 C         1.386477        -0.117089         0.182120
 C         2.295360        -1.366463         0.104288
 C         3.147061        -0.036848         0.055158
 C         4.606308        -0.112949         0.582104
 O         4.475753        -0.028559         1.997061
 C         3.042167         0.130456         2.399950
 C         2.357351         0.577670         1.178870
 O         2.396395         0.481392        -0.996457
 H        -0.713348         0.241830         0.826204
 H        -0.218397         0.937526        -0.493377
 H        -0.571844        -0.769997        -0.693790
 H         2.444137        -2.032575         1.000741
 H         2.240316        -1.904121        -0.906922
 H         4.962079        -1.160488         0.211011
 H         5.334797         0.563760         0.088253
 H         2.542895        -0.816897         2.765821
 H         3.047678         0.904920         3.236871
 H         2.529245         1.718281         0.940959
