19
Iteration:  3129charge 0 multiplicity 1
 C        -0.044432         0.116583        -0.023611
 C         1.390052        -0.108108         0.062799
 C         2.264876        -1.357316         0.162404
 C         3.150284        -0.113518         0.104237
 C         4.609743         0.039152         0.568222
 O         4.533094        -0.189585         1.931217
 C         3.016167         0.074933         2.362529
 C         2.309782         0.581700         1.167896
 O         2.390371         0.492667        -0.946638
 H        -0.445577         0.064786         1.002789
 H        -0.293420         1.030655        -0.557241
 H        -0.651770        -0.634918        -0.539465
 H         2.130738        -1.989890         1.045321
 H         2.355800        -2.020428        -0.659151
 H         5.185664        -0.748721         0.299523
 H         4.976819         0.990323         0.220939
 H         2.747961        -0.934347         2.836284
 H         3.204084         0.742211         3.238973
 H         2.087079         1.683524         1.052520
