19
Iteration:  1586charge 0 multiplicity 1
 C        -0.110460         0.094126        -0.087474
 C         1.369414        -0.090109         0.067995
 C         2.265156        -1.378532         0.073516
 C         3.199426        -0.163970         0.067255
 C         4.559313        -0.126422         0.638904
 O         4.501811         0.198541         2.028203
 C         3.132670        -0.084546         2.397970
 C         2.407919         0.512100         1.221370
 O         2.284165         0.529252        -1.003884
 H        -0.692828        -0.254563         0.784731
 H        -0.132835         1.277541        -0.051132
 H        -0.423703        -0.402097        -1.060965
 H         2.349968        -1.995976         0.952754
 H         2.193625        -1.964949        -0.824275
 H         4.966300        -1.166936         0.480439
 H         5.200574         0.685378         0.228174
 H         2.874600        -1.128537         2.477580
 H         2.964587         0.435702         3.315943
 H         2.666555         1.565900         1.303626
