19
Iteration:   484charge 0 multiplicity 1
 C        -0.104719         0.089121        -0.042851
 C         1.405713        -0.214286         0.107044
 C         2.319675        -1.435899         0.115168
 C         3.190120        -0.055336         0.083836
 C         4.575959         0.073535         0.532966
 O         4.492549        -0.178004         1.996306
 C         3.021176         0.113681         2.442991
 C         2.349038         0.488769         1.165250
 O         2.368008         0.567206        -0.990110
 H        -0.742016        -0.378506         0.651754
 H        -0.354316         1.225221         0.057174
 H        -0.395396        -0.268534        -1.067736
 H         2.332641        -2.012236         1.042428
 H         2.367227        -1.918806        -0.838947
 H         5.263990        -0.714794         0.097915
 H         4.945549         1.208511         0.360449
 H         2.772361        -0.819667         2.930925
 H         3.060300         0.948332         3.295604
 H         2.324771         1.618170         1.068644
