19
Iteration:  2194
 C        -0.097429         0.080166         0.071101
 C         1.389805        -0.096759         0.119260
 C         2.217780        -1.359641        -0.025420
 C         3.210065        -0.197319         0.024771
 C         4.652407        -0.176099         0.660177
 O         4.481598         0.225466         2.084563
 C         3.068745        -0.000677         2.425856
 C         2.439408         0.554819         1.091080
 O         2.326820         0.468711        -1.043037
 H        -0.419575        -0.042663         1.111556
 H        -0.579536         1.092252        -0.307855
 H        -0.538635        -0.640099        -0.640817
 H         2.064599        -2.092391         0.750857
 H         2.201708        -1.693002        -1.029809
 H         5.099520        -1.286360         0.586191
 H         5.357515         0.535693         0.119390
 H         2.749708        -1.109052         2.597176
 H         2.672838         0.719628         3.223316
 H         2.319174         1.602430         1.075194
