19
Iteration:  2810
 C        -0.088087         0.035986        -0.085559
 C         1.376751        -0.092167         0.156727
 C         2.284983        -1.352497         0.124296
 C         3.219002        -0.094873         0.086162
 C         4.614092        -0.047583         0.500641
 O         4.441068        -0.138295         1.924845
 C         3.046773         0.128027         2.397755
 C         2.341153         0.642898         1.243447
 O         2.408295         0.447385        -0.908606
 H        -0.683731        -0.535147         0.609991
 H        -0.303995         1.120611         0.136462
 H        -0.348457        -0.293506        -1.073378
 H         2.200441        -2.074514         0.874190
 H         2.191516        -1.729665        -0.888993
 H         5.057320        -0.923202         0.104474
 H         5.093499         0.945175         0.132837
 H         2.517682        -0.781010         2.762109
 H         3.135561         0.780546         3.281293
 H         2.443688         1.741028         1.272631
