19
Iteration:   104
 C        -0.112131        -0.054167        -0.115435
 C         1.366223        -0.044303         0.086896
 C         2.242824        -1.317000         0.025925
 C         3.198370        -0.091929         0.093373
 C         4.600586        -0.190866         0.565294
 O         4.494044         0.135222         2.004377
 C         3.113937        -0.024806         2.516967
 C         2.381280         0.541544         1.190737
 O         2.362643         0.572310        -0.959810
 H        -0.601593        -0.562112         0.813497
 H        -0.682194         0.953298        -0.141877
 H        -0.523356        -0.564176        -1.056520
 H         2.237911        -2.143055         0.809797
 H         2.114882        -1.831145        -0.962588
 H         5.165936        -1.182567         0.304895
 H         5.226015         0.627992         0.134718
 H         2.887309        -1.002494         3.025569
 H         3.015823         0.727488         3.323516
 H         2.389164         1.684605         1.222478
