19
Iteration:  1744charge 0 multiplicity 1
 C        -0.055027        -0.025126         0.035158
 C         1.439107        -0.027242         0.128992
 C         2.365385        -1.371604         0.017010
 C         3.222933        -0.100125         0.014069
 C         4.626610         0.049609         0.616829
 O         4.355685        -0.351769         1.965504
 C         3.053309         0.238535         2.456022
 C         2.398766         0.634632         1.139618
 O         2.302573         0.500163        -0.994019
 H        -0.623104         0.034221         1.043075
 H        -0.492142         0.694955        -0.657166
 H        -0.422393        -0.957119        -0.460258
 H         2.275335        -2.069788         0.881369
 H         2.135746        -1.806071        -0.989619
 H         5.555926        -0.542735         0.360861
 H         4.740757         1.118337         0.513361
 H         2.583237        -0.634740         3.015237
 H         3.169508         1.118975         3.142670
 H         2.358657         1.713430         1.260417
