19
Iteration:  1839
 C        -0.152980         0.121440        -0.037053
 C         1.373557        -0.112992         0.108359
 C         2.209488        -1.355422         0.084345
 C         3.206446        -0.257692         0.115833
 C         4.596711        -0.008129         0.550609
 O         4.483225         0.021574         1.937022
 C         3.075891         0.083156         2.454110
 C         2.357081         0.457266         1.162058
 O         2.454204         0.512652        -0.933886
 H        -0.620528        -0.613554         0.720034
 H        -0.391887         1.125499         0.063008
 H        -0.433729        -0.091407        -1.039842
 H         2.295813        -1.999952         0.946237
 H         2.275573        -1.958021        -0.821244
 H         5.226228        -0.877997         0.116487
 H         4.952135         1.013907         0.224302
 H         2.659419        -0.891611         2.837169
 H         3.043421         0.896989         3.243926
 H         2.430069         1.554261         0.953278
