19
Iteration:  4217
 C        -0.090729         0.046916        -0.031830
 C         1.382536        -0.115421         0.125940
 C         2.375413        -1.311926        -0.091986
 C         3.152635        -0.061953         0.071942
 C         4.614413         0.051860         0.561754
 O         4.454138        -0.167827         1.997767
 C         3.056031        -0.100478         2.441604
 C         2.308430         0.488536         1.235460
 O         2.371829         0.652047        -0.896479
 H        -0.623625         0.491594         0.825131
 H        -0.102506         0.778903        -0.852782
 H        -0.506774        -0.942527        -0.519770
 H         2.232716        -1.983263         0.768650
 H         2.147742        -1.738647        -1.014277
 H         5.373353        -0.636799         0.154692
 H         4.909072         1.143638         0.295426
 H         2.714234        -1.116587         2.836776
 H         3.050046         0.573301         3.266008
 H         2.432215         1.549239         1.419500
