19
Iteration:  3066
 C        -0.057742         0.131055        -0.161059
 C         1.379259        -0.124802         0.079169
 C         2.206812        -1.381901         0.086836
 C         3.213293        -0.141076         0.082901
 C         4.624484        -0.064451         0.492649
 O         4.509607        -0.028136         1.930478
 C         3.114797         0.065384         2.521397
 C         2.337117         0.570686         1.244683
 O         2.286407         0.502180        -0.871840
 H        -0.634476         0.072772         0.839378
 H        -0.147463         1.084581        -0.647751
 H        -0.413511        -0.811979        -0.773807
 H         2.123611        -1.957714         0.999322
 H         2.321252        -1.908970        -0.830186
 H         5.068494        -1.125079         0.260987
 H         5.330740         0.710344        -0.002296
 H         2.832001        -0.881777         2.934037
 H         3.077738         0.727634         3.383426
 H         2.313690         1.687027         1.291772
