19
Iteration:  1002
 C        -0.176556        -0.018194        -0.186689
 C         1.382071        -0.088187         0.166408
 C         2.251296        -1.370892         0.036042
 C         3.179786        -0.098718         0.024430
 C         4.624762        -0.023158         0.605306
 O         4.546320        -0.202297         2.003209
 C         3.126644         0.093417         2.457275
 C         2.392543         0.645926         1.272464
 O         2.302878         0.597622        -0.924610
 H        -0.803216        -0.184161         0.695071
 H        -0.407626         0.930629        -0.591254
 H        -0.347596        -0.828376        -0.948583
 H         2.105820        -2.063104         0.992114
 H         2.367402        -1.864802        -0.958815
 H         5.306114        -0.782251         0.211005
 H         4.874818         1.012859         0.274516
 H         2.755845        -0.942105         2.828315
 H         3.240878         0.817805         3.252010
 H         2.381995         1.733447         1.042118
