19
Iteration:  4644charge 0 multiplicity 1
 C        -0.092810         0.053485        -0.064330
 C         1.375938         0.020447         0.039814
 C         2.336521        -1.369650        -0.128467
 C         3.250115        -0.126177         0.165865
 C         4.656377         0.086434         0.581502
 O         4.493871        -0.105632         2.017184
 C         3.033200        -0.239843         2.355690
 C         2.339760         0.481790         1.278191
 O         2.247293         0.735697        -0.835666
 H        -0.401372         0.784183        -0.829749
 H        -0.650512        -0.878044        -0.302722
 H        -0.500068         0.221517         0.933940
 H         2.377664        -2.196652         0.532764
 H         2.304855        -1.793610        -1.097274
 H         5.310359        -0.810530         0.217414
 H         5.144085         1.037085         0.260367
 H         2.708539        -1.282245         2.369552
 H         3.130962         0.225222         3.405623
 H         2.352050         1.581811         1.424251
