19
Iteration:  4724
 C        -0.026629        -0.004634        -0.062683
 C         1.371064        -0.133404         0.191150
 C         2.365546        -1.269171         0.007282
 C         3.249335         0.088051        -0.007929
 C         4.640621         0.163049         0.587215
 O         4.392993        -0.385965         1.933578
 C         3.075837        -0.093235         2.463125
 C         2.321624         0.456159         1.231946
 O         2.235843         0.717878        -0.964122
 H        -0.317278         1.082864        -0.058671
 H        -0.152247        -0.494728        -1.022368
 H        -0.566183        -0.335480         0.809073
 H         2.414914        -1.995413         0.855907
 H         2.223887        -1.921597        -0.963644
 H         5.369508        -0.502338         0.167375
 H         5.045209         1.152344         0.735194
 H         2.818404        -1.115853         3.015622
 H         3.270289         0.646537         3.253329
 H         2.281804         1.526329         1.321652
