19
Iteration:  4585
 C        -0.105336         0.071669        -0.085720
 C         1.405773        -0.092935         0.063576
 C         2.283333        -1.294093        -0.113352
 C         3.186102        -0.124600         0.121594
 C         4.647476         0.062614         0.548955
 O         4.486506         0.035916         1.980227
 C         3.063977        -0.263659         2.369728
 C         2.281311         0.385054         1.260038
 O         2.369950         0.686378        -0.745910
 H        -0.230027         1.142099        -0.332583
 H        -0.599741        -0.574389        -0.816074
 H        -0.499924         0.108163         0.954016
 H         2.197863        -2.017352         0.694340
 H         2.248393        -1.691554        -1.122472
 H         5.157484        -0.860125         0.171101
 H         5.121752         0.969003         0.056858
 H         2.881306        -1.305981         2.387075
 H         3.035412         0.138390         3.355571
 H         2.260099         1.452096         1.484274
