19
Iteration:  3557charge 0 multiplicity 1
 C        -0.136061         0.071864        -0.080438
 C         1.389542        -0.040509         0.015240
 C         2.267419        -1.324439         0.250510
 C         3.167974        -0.124601         0.121652
 C         4.615589         0.034742         0.521813
 O         4.458465        -0.221182         1.947992
 C         3.159374         0.127467         2.483778
 C         2.346387         0.557489         1.129455
 O         2.336890         0.428837        -0.995759
 H        -0.631803         0.414776         0.819093
 H        -0.136278         0.843385        -0.847963
 H        -0.577385        -0.875408        -0.360546
 H         2.292660        -1.773323         1.228816
 H         2.278873        -2.000553        -0.639074
 H         5.347325        -0.583850         0.108191
 H         4.963083         1.028485         0.454820
 H         2.730867        -0.781978         2.918387
 H         3.207414         0.951397         3.148109
 H         2.500681         1.657724         1.176855
