19
Iteration:  2787
 C        -0.099277         0.078545        -0.206412
 C         1.315612        -0.054073         0.098883
 C         2.261512        -1.336734         0.239007
 C         3.166207        -0.119640         0.085181
 C         4.654308        -0.061186         0.552067
 O         4.565133        -0.103185         1.997445
 C         3.175686         0.053021         2.414695
 C         2.372331         0.563201         1.202558
 O         2.197026         0.515891        -0.942154
 H        -0.691554        -0.807408         0.081875
 H        -0.442525         0.986538         0.269836
 H         0.067951         0.048420        -1.312185
 H         2.342371        -1.827225         1.202464
 H         2.263992        -1.982836        -0.626933
 H         5.101730        -0.994703         0.225731
 H         5.180573         0.922082         0.203452
 H         2.742433        -0.955251         2.727755
 H         2.992933         0.706783         3.272027
 H         2.513639         1.660937         0.994462
