19
Iteration:  3622charge 0 multiplicity 1
 C        -0.134809         0.153939        -0.047099
 C         1.408782        -0.094904        -0.027948
 C         2.198304        -1.411033         0.128793
 C         3.178790        -0.158017         0.114208
 C         4.617461        -0.100318         0.566520
 O         4.543488         0.113295         2.010383
 C         3.095962        -0.003223         2.410807
 C         2.337509         0.531024         1.211491
 O         2.355509         0.487702        -0.929536
 H        -0.399993         1.092670         0.504838
 H        -0.555207         0.235701        -1.120351
 H        -0.632625        -0.893605         0.403955
 H         2.241519        -2.108903         0.977266
 H         2.163660        -1.996675        -0.789803
 H         5.153972        -1.031351         0.305950
 H         5.197731         0.836928         0.064682
 H         3.002876        -1.053308         2.400706
 H         2.952945         0.524624         3.297096
 H         2.495050         1.613181         0.936501
