19
Iteration:  4437charge 0 multiplicity 1
 C         0.003834        -0.012590        -0.048084
 C         1.420161        -0.125104         0.141307
 C         2.330253        -1.266196        -0.026702
 C         3.152847         0.072276         0.120115
 C         4.632338         0.102222         0.562066
 O         4.402024        -0.358147         1.907329
 C         3.075545        -0.104518         2.482388
 C         2.260768         0.516818         1.276770
 O         2.314328         0.700714        -1.016733
 H        -0.282646         1.000247         0.168810
 H        -0.340938        -0.260329        -1.055351
 H        -0.434121        -0.664803         0.765352
 H         2.567003        -1.994698         0.882680
 H         2.595436        -1.585108        -1.091963
 H         5.197172        -0.720916         0.152658
 H         5.248170         1.008259         0.697604
 H         2.671563        -0.967073         3.016705
 H         3.135471         0.802619         3.031382
 H         2.091590         1.540219         1.632522
