19
Iteration:  1515
 C        -0.122912         0.070758        -0.084896
 C         1.418822        -0.184290         0.136225
 C         2.340352        -1.386288         0.160816
 C         3.206160        -0.016013         0.065742
 C         4.686935         0.060262         0.581128
 O         4.448690        -0.248404         1.932961
 C         3.020451         0.114343         2.458307
 C         2.351873         0.587219         1.156526
 O         2.314493         0.487657        -1.011901
 H        -0.773895         0.206759         0.884374
 H        -0.127964         1.170404        -0.331389
 H        -0.665878        -0.541903        -0.818860
 H         2.351739        -2.061844         1.076052
 H         2.345442        -1.877352        -0.848599
 H         5.357776        -0.765415         0.317233
 H         5.088822         1.083104         0.380594
 H         2.705636        -0.777615         3.004113
 H         3.020131         0.930973         3.263677
 H         2.094511         1.679553         1.194910
