19
Iteration:  2698
 C        -0.047928         0.230207         0.037252
 C         1.343727        -0.105429         0.129626
 C         2.269690        -1.406674         0.056081
 C         3.201647        -0.156687         0.044046
 C         4.651903        -0.162767         0.664871
 O         4.519373         0.134289         2.072094
 C         3.029588        -0.027574         2.321277
 C         2.397387         0.560585         1.098472
 O         2.248400         0.431003        -1.021127
 H        -0.669302        -0.467727         0.704990
 H        -0.340785         1.202331         0.256346
 H        -0.516067         0.054143        -1.021414
 H         2.463049        -2.175582         0.842799
 H         2.235601        -1.745504        -0.975348
 H         5.329134        -1.063334         0.578434
 H         5.151432         0.784760         0.250943
 H         2.964133        -1.247819         2.448693
 H         2.938840         0.595227         3.259370
 H         2.430761         1.680395         1.171668
