19
Iteration:  2291charge 0 multiplicity 1
 C        -0.048391         0.140954        -0.220833
 C         1.392426        -0.140296         0.063142
 C         2.241949        -1.404073         0.281686
 C         3.205646        -0.200380         0.193697
 C         4.594721         0.164409         0.557305
 O         4.460751        -0.267029         1.949474
 C         3.160866         0.150659         2.436217
 C         2.424587         0.638584         1.107653
 O         2.232232         0.394304        -0.953212
 H        -0.799209        -0.334584         0.460737
 H        -0.440153         1.228313         0.071145
 H        -0.316768        -0.266624        -1.223525
 H         2.094781        -1.782845         1.308389
 H         2.348885        -2.188212        -0.443066
 H         5.474622        -0.193314         0.124934
 H         4.747309         1.409016         0.328244
 H         2.771601        -0.778178         2.856731
 H         3.310258         0.818566         3.217238
 H         2.483694         1.674338         0.882747
