19
Iteration:  1088charge 0 multiplicity 1
 C        -0.060241         0.221230        -0.020904
 C         1.418787        -0.088454        -0.000292
 C         2.211534        -1.469661        -0.096056
 C         3.237236        -0.278094         0.111998
 C         4.695665        -0.067810         0.637052
 O         4.477105         0.220183         2.042301
 C         3.132755        -0.076588         2.506582
 C         2.316793         0.473030         1.176014
 O         2.227848         0.484680        -0.992050
 H        -0.662673        -0.619113         0.617309
 H        -0.261410         1.083217         0.539442
 H        -0.683940         0.365363        -0.984825
 H         2.130774        -1.956534         0.869095
 H         2.294576        -1.735369        -1.136411
 H         5.275991        -0.987011         0.760498
 H         5.209646         0.715259         0.057247
 H         3.053323        -1.056526         2.980327
 H         2.865936         0.665534         3.261143
 H         2.492473         1.524429         1.007675
