19
Iteration:  3348
 C        -0.093274         0.105317        -0.052296
 C         1.373648        -0.052959         0.049729
 C         2.253660        -1.339404         0.064498
 C         3.217066        -0.171760         0.117374
 C         4.651144        -0.151182         0.572303
 O         4.546911         0.086677         1.963787
 C         3.049759         0.059755         2.428821
 C         2.294411         0.557481         1.243693
 O         2.315429         0.434369        -0.970777
 H        -0.426499        -0.108469         0.958824
 H        -0.377365         1.049126        -0.268277
 H        -0.600861        -0.670840        -0.649514
 H         2.099531        -2.121500         0.875579
 H         2.362964        -1.760649        -0.971286
 H         5.063061        -1.147596         0.302904
 H         5.446162         0.578883         0.287724
 H         2.720675        -0.833861         2.694680
 H         2.984675         0.766818         3.260809
 H         2.400186         1.666628         1.081134
