19
Iteration:   745
 C        -0.044100        -0.084749         0.036534
 C         1.483308        -0.029018         0.024122
 C         2.294078        -1.276125         0.137152
 C         3.246302        -0.048008         0.056091
 C         4.619454         0.065227         0.582677
 O         4.417958        -0.285434         1.950765
 C         2.984743         0.038481         2.452824
 C         2.385151         0.658123         1.180760
 O         2.298028         0.526165        -1.049288
 H        -0.346267        -0.520797         0.928007
 H        -0.647719         0.922674         0.147596
 H        -0.476233        -0.660874        -0.763850
 H         2.303834        -1.806370         1.117187
 H         2.286246        -1.921195        -0.792526
 H         5.085014        -0.869730         0.241787
 H         5.070220         1.014726         0.393545
 H         2.550477        -0.823024         2.940444
 H         3.123616         0.929136         3.166123
 H         2.394881         1.829915         1.098604
