19
Iteration:  2156charge 0 multiplicity 1
 C        -0.000473         0.216382        -0.128467
 C         1.384184        -0.127967         0.083822
 C         2.231756        -1.453447         0.140185
 C         3.154798        -0.169862         0.090571
 C         4.553342        -0.085163         0.471522
 O         4.510999         0.174847         1.989286
 C         3.091584         0.027960         2.411937
 C         2.315532         0.439440         1.237671
 O         2.341041         0.440887        -0.904629
 H        -0.678920        -0.463473         0.530354
 H        -0.079052         1.274644         0.241847
 H        -0.431932        -0.082398        -1.162803
 H         2.188365        -2.094497         1.064681
 H         2.579822        -2.100385        -0.750556
 H         5.235470        -0.890675         0.328538
 H         4.946240         0.877773        -0.008842
 H         2.915015        -0.957141         2.815521
 H         3.010602         0.660698         3.298647
 H         2.337379         1.596413         1.153202
