19
Iteration:  1432charge 0 multiplicity 1
 C        -0.114396        -0.018889        -0.062061
 C         1.348649        -0.093103         0.067701
 C         2.328662        -1.283978        -0.018063
 C         3.169047        -0.034656         0.124007
 C         4.651850        -0.119672         0.545449
 O         4.516976        -0.171263         2.094899
 C         3.112061         0.168322         2.508949
 C         2.408113         0.629200         1.153496
 O         2.217619         0.473906        -1.011164
 H        -0.352818        -0.755250         0.565422
 H        -0.402452         1.003089         0.305539
 H        -0.512088        -0.183829        -1.083185
 H         2.342009        -1.888407         0.872540
 H         2.354507        -1.892815        -0.924068
 H         5.263908        -0.968332         0.365718
 H         5.274125         0.736946         0.295480
 H         2.455072        -0.699047         2.820905
 H         3.041706         0.978354         3.226964
 H         2.358657         1.695049         0.934079
