19
Iteration:  1292
 C        -0.204910        -0.029956        -0.072978
 C         1.329712        -0.109004         0.077208
 C         2.247932        -1.363988         0.087793
 C         3.179134        -0.084678         0.109934
 C         4.618604        -0.091928         0.569551
 O         4.514518        -0.051690         2.017011
 C         3.126764         0.095266         2.414810
 C         2.367901         0.535142         1.216634
 O         2.455962         0.605238        -0.997038
 H        -0.784463        -0.627444         0.681272
 H        -0.574275         1.022913         0.018743
 H        -0.529121        -0.266265        -1.110947
 H         2.205426        -1.822908         1.065926
 H         2.138187        -1.995679        -0.800401
 H         5.154387        -1.008484         0.196380
 H         5.139141         0.747714         0.138023
 H         2.712409        -0.797012         2.672174
 H         3.182037         0.727555         3.283421
 H         2.280763         1.594218         1.252263
