19
Iteration:  2464charge 0 multiplicity 1
 C        -0.142706         0.208284        -0.216415
 C         1.366418        -0.074564         0.144178
 C         2.122310        -1.473530         0.143981
 C         3.222726        -0.167045         0.139531
 C         4.615217         0.045870         0.488547
 O         4.557230         0.049564         1.987916
 C         3.133534         0.016905         2.432686
 C         2.415588         0.482304         1.210820
 O         2.329974         0.418063        -0.915769
 H        -0.765110        -0.047461         0.591208
 H        -0.307867         1.253597        -0.596480
 H        -0.371841        -0.472694        -1.010441
 H         1.990902        -2.020809         1.144515
 H         2.127225        -2.081724        -0.779672
 H         5.393590        -0.776312         0.513281
 H         4.870941         1.017840         0.142112
 H         2.909103        -1.093583         2.716899
 H         3.149700         0.511090         3.403974
 H         2.440008         1.607401         1.153739
