19
Iteration:  4990charge 0 multiplicity 1
 C         0.005570         0.036731        -0.021983
 C         1.403379        -0.129771         0.105743
 C         2.365700        -1.283952        -0.059572
 C         3.191755         0.076703         0.084320
 C         4.610269         0.198518         0.638068
 O         4.522380        -0.421815         1.948747
 C         3.026948        -0.110664         2.436164
 C         2.250107         0.482967         1.262621
 O         2.242117         0.672813        -0.968296
 H        -0.305515         0.940035        -0.489449
 H        -0.509334        -0.770957        -0.610392
 H        -0.582403         0.051660         0.941982
 H         2.551550        -2.045670         0.713989
 H         2.261396        -1.531640        -1.150071
 H         5.275040        -0.339389        -0.027031
 H         5.011967         1.313941         0.753155
 H         2.744120        -1.130342         2.668918
 H         3.184894         0.487642         3.370050
 H         2.315153         1.592512         1.347696
