19
Iteration:  1110
 C        -0.088492         0.115931         0.013268
 C         1.387327        -0.128427         0.106540
 C         2.166563        -1.445215        -0.076903
 C         3.168505        -0.188892         0.106961
 C         4.640764        -0.149273         0.605969
 O         4.486388         0.184477         2.033685
 C         3.061328         0.049842         2.437057
 C         2.390837         0.455739         1.154926
 O         2.409110         0.579525        -0.943049
 H        -0.680669        -0.701723         0.674804
 H        -0.465541         1.098259         0.255858
 H        -0.376673        -0.084573        -1.084509
 H         2.228341        -2.004705         0.871666
 H         2.168342        -1.714907        -1.133098
 H         5.093803        -1.135718         0.397979
 H         5.140029         0.639717         0.023571
 H         2.988084        -1.065786         2.659045
 H         2.863303         0.569660         3.382626
 H         2.420500         1.507313         0.884225
