19
Iteration:  1524charge 0 multiplicity 1
 C        -0.063513         0.106486        -0.028973
 C         1.390829        -0.145926         0.147824
 C         2.376711        -1.388129         0.084345
 C         3.145061        -0.103825         0.021898
 C         4.628735         0.042963         0.539276
 O         4.426732        -0.179557         2.017914
 C         3.023134         0.107801         2.424049
 C         2.305308         0.535833         1.218301
 O         2.367767         0.531573        -1.015823
 H        -0.689160         0.060903         0.942388
 H        -0.164187         1.003041        -0.544566
 H        -0.522503        -0.599737        -0.679214
 H         2.484382        -1.854290         1.104564
 H         2.310586        -2.177757        -0.685638
 H         5.281729        -0.741872         0.066627
 H         5.158455         0.948879         0.379348
 H         2.609247        -0.866202         2.880302
 H         3.251292         0.938721         3.159821
 H         2.316355         1.626876         1.012153
