19
Iteration:  3413
 C        -0.170041         0.169721        -0.207084
 C         1.335045        -0.120762         0.086736
 C         2.295879        -1.360793         0.225075
 C         3.128400        -0.113641         0.137188
 C         4.683553        -0.007576         0.480443
 O         4.508154        -0.032962         1.963218
 C         3.131396         0.082967         2.474244
 C         2.380953         0.616411         1.254055
 O         2.310068         0.315161        -0.971172
 H        -0.795858        -0.707456         0.074964
 H        -0.404527         0.965986         0.429919
 H        -0.407501         0.513181        -1.269932
 H         1.894605        -1.890162         1.101729
 H         2.458116        -1.976574        -0.686175
 H         5.294887        -0.916435         0.288469
 H         5.198676         0.904493         0.139764
 H         2.863405        -1.085181         2.760551
 H         3.261547         0.597100         3.438800
 H         2.547485         1.717676         0.993598
