19
Iteration:  3495
 C        -0.068827        -0.006874        -0.002465
 C         1.365912        -0.093851         0.094663
 C         2.306530        -1.377808         0.192169
 C         3.221775        -0.049912         0.005818
 C         4.687189        -0.104225         0.575808
 O         4.397710        -0.242118         1.995629
 C         3.079124         0.264492         2.429630
 C         2.368130         0.646886         1.146675
 O         2.297696         0.489843        -1.067442
 H        -0.659014        -0.708804         0.573239
 H        -0.359928         1.047099         0.401943
 H        -0.323096         0.050694        -1.024247
 H         2.318037        -1.953206         1.204083
 H         2.205661        -2.105978        -0.613969
 H         5.227446        -1.009429         0.191894
 H         5.328914         0.872361         0.449663
 H         2.625935        -0.564414         3.082762
 H         3.260961         1.189286         3.099418
 H         2.154310         1.704696         1.020171
