19
Iteration:  3179
 C         0.003737         0.040292         0.058250
 C         1.429658        -0.119474         0.059617
 C         2.263429        -1.372688         0.097928
 C         3.212190        -0.131472         0.115157
 C         4.672344        -0.013332         0.558805
 O         4.462674        -0.265423         2.042755
 C         2.982814         0.212420         2.355976
 C         2.359672         0.686183         1.161687
 O         2.255466         0.501110        -1.034668
 H        -0.472170        -0.785026         0.571207
 H        -0.274499         1.123286         0.401208
 H        -0.474472        -0.059277        -0.931762
 H         2.319033        -2.032947         1.022084
 H         2.151157        -1.984638        -0.885061
 H         5.354880        -0.879058         0.007027
 H         5.005120         1.060720         0.413056
 H         2.728452        -0.663981         2.816238
 H         3.123127         0.934035         3.137198
 H         2.386584         1.723599         0.981084
