19
Iteration:     1charge 0 multiplicity 1
 C        -0.066672         0.040848        -0.091701
 C         1.406577        -0.112956         0.119954
 C         2.300696        -1.365334         0.111384
 C         3.191360        -0.097748         0.093410
 C         4.614726         0.034348         0.553726
 O         4.455986        -0.091187         1.983925
 C         3.067092         0.067457         2.418662
 C         2.347896         0.567134         1.178098
 O         2.317248         0.474102        -0.948587
 H        -0.612080        -0.424412         0.735338
 H        -0.340167         1.098907        -0.137015
 H        -0.372608        -0.440397        -1.025344
 H         2.310648        -2.006987         0.994066
 H         2.291659        -1.929213        -0.821836
 H         5.289875        -0.759336         0.220412
 H         5.039758         1.011373         0.286298
 H         2.709039        -0.893349         2.804567
 H         3.059029         0.791538         3.238434
 H         2.338305         1.655598         1.089415
