19
Iteration:  1502charge 0 multiplicity 1
 C        -0.089186         0.102763        -0.136179
 C         1.357609        -0.128899         0.119122
 C         2.326501        -1.314951         0.168718
 C         3.271114         0.010815         0.151920
 C         4.684081         0.115386         0.590108
 O         4.429466        -0.335294         1.963549
 C         3.100600         0.112991         2.387753
 C         2.328960         0.656575         1.147991
 O         2.222724         0.362937        -0.947835
 H        -0.563883        -0.391163         0.823339
 H        -0.264423         1.088851        -0.428743
 H        -0.425015        -0.505752        -0.942752
 H         2.295792        -2.136054         0.959315
 H         2.451062        -1.839251        -0.805797
 H         5.427357        -0.495706         0.000306
 H         5.097398         1.106920         0.574381
 H         2.607537        -0.851332         2.809622
 H         3.288417         0.981211         3.118875
 H         2.314472         1.769551         1.040344
