19
Iteration:  2908charge 0 multiplicity 1
 C        -0.169099         0.007947        -0.123988
 C         1.359414        -0.055828         0.095058
 C         2.300469        -1.366980         0.249578
 C         3.205985        -0.086475         0.106266
 C         4.664020        -0.018507         0.544036
 O         4.473977        -0.266295         1.914277
 C         3.096963         0.113447         2.380329
 C         2.293645         0.649083         1.169790
 O         2.379341         0.519842        -0.900432
 H        -0.830184         0.033047         0.728026
 H        -0.419151         1.106836        -0.496707
 H        -0.470405        -0.624006        -0.921721
 H         2.297452        -1.918324         1.163447
 H         2.337460        -1.947030        -0.695571
 H         5.335079        -0.711865         0.154836
 H         5.156725         1.016617         0.234602
 H         2.812439        -0.797475         2.833951
 H         3.136525         0.962843         3.040054
 H         2.400434         1.738488         1.237295
