19
Iteration:   843charge 0 multiplicity 1
 C        -0.109922         0.144085        -0.244419
 C         1.329138        -0.107059         0.237079
 C         2.165888        -1.389422         0.015844
 C         3.173995        -0.243976         0.055755
 C         4.670023        -0.079085         0.504495
 O         4.477849         0.346263         1.987652
 C         3.196708        -0.158451         2.429882
 C         2.336979         0.342500         1.252367
 O         2.355537         0.570886        -0.822446
 H        -0.803153        -0.319788         0.351565
 H        -0.392714         1.327321        -0.066863
 H        -0.273321        -0.188041        -1.283470
 H         2.061918        -2.204570         0.721162
 H         2.177435        -1.922738        -0.964050
 H         5.183529        -1.126345         0.674448
 H         5.286092         0.743311         0.080903
 H         3.156081        -1.174236         2.610724
 H         3.216754         0.443239         3.351727
 H         2.324147         1.494909         1.426003
