19
Iteration:  1874
 C         0.006556         0.186138         0.030000
 C         1.392004        -0.156716         0.133908
 C         2.228922        -1.381332         0.017280
 C         3.220198        -0.164463         0.058995
 C         4.602930        -0.100053         0.670013
 O         4.462623         0.213263         2.024424
 C         3.070510         0.004383         2.379358
 C         2.365778         0.511581         1.132223
 O         2.266320         0.415518        -1.019967
 H        -0.826795        -0.547181         0.310326
 H        -0.238986         0.963773         0.742216
 H        -0.239211         0.353121        -1.029798
 H         2.365443        -2.091299         0.836007
 H         2.232898        -1.842688        -0.959181
 H         5.076002        -1.212192         0.423014
 H         5.331148         0.556166         0.134481
 H         2.899456        -1.133512         2.491462
 H         3.092046         0.376090         3.415234
 H         2.423963         1.569628         1.055063
