19
Iteration:  1471charge 0 multiplicity 1
 C        -0.001252        -0.003042        -0.132223
 C         1.388321        -0.150298         0.228839
 C         2.260656        -1.278632         0.272140
 C         3.210399        -0.063320        -0.022806
 C         4.591932         0.045531         0.496108
 O         4.340147        -0.315176         1.929586
 C         3.067157         0.156104         2.455772
 C         2.385517         0.607226         1.159430
 O         2.393219         0.548839        -0.982342
 H        -0.654736        -0.829839         0.501067
 H        -0.589809         0.925148         0.110218
 H        -0.181783        -0.473571        -1.097283
 H         2.299053        -1.862598         1.255340
 H         2.181186        -2.039502        -0.545016
 H         5.365248        -0.530595        -0.090108
 H         4.902817         1.146952         0.524639
 H         2.684357        -0.655419         3.090421
 H         3.499105         0.927850         3.147680
 H         2.351679         1.721705         1.007192
