19
Iteration:  1485charge 0 multiplicity 1
 C        -0.066897        -0.015864        -0.136733
 C         1.434259        -0.039184         0.199070
 C         2.346248        -1.372042         0.237997
 C         3.151589        -0.089857         0.050141
 C         4.569387         0.113263         0.600327
 O         4.448061        -0.395230         1.911524
 C         3.097142         0.148994         2.443327
 C         2.382920         0.688916         1.190092
 O         2.273126         0.478422        -1.048855
 H        -0.656538        -0.526619         0.599523
 H        -0.319746         1.140879        -0.205828
 H        -0.139691        -0.327779        -1.221780
 H         2.515376        -1.796144         1.211402
 H         2.219822        -2.012532        -0.633609
 H         5.373636        -0.524758         0.286551
 H         4.784508         1.241948         0.493307
 H         2.603395        -0.634476         2.933121
 H         3.128888         0.935767         3.170865
 H         2.398752         1.784545         1.100216
