19
Iteration:  4200
 C        -0.037704         0.033342        -0.092115
 C         1.427704        -0.069018         0.192165
 C         2.209873        -1.332984        -0.055173
 C         3.197636        -0.030049         0.102590
 C         4.639563         0.158355         0.556836
 O         4.448561        -0.240888         1.944682
 C         3.039091        -0.088041         2.527605
 C         2.326585         0.489528         1.259078
 O         2.378250         0.595139        -0.966806
 H        -0.408808         0.171402         0.928422
 H        -0.384948         0.968437        -0.597573
 H        -0.298145        -0.871035        -0.531141
 H         2.349440        -2.204708         0.578923
 H         2.407602        -1.579716        -1.163118
 H         5.211115        -0.692042         0.157558
 H         4.920713         1.175473         0.458389
 H         2.635366        -1.100061         2.630659
 H         3.005644         0.760557         3.310667
 H         2.127248         1.604112         1.243254
