19
Iteration:   433charge 0 multiplicity 1
 C        -0.088970        -0.106540        -0.005773
 C         1.439184        -0.132089         0.174514
 C         2.406644        -1.304602         0.062860
 C         3.245246        -0.010889         0.002310
 C         4.654116         0.030073         0.650746
 O         4.298788        -0.433123         1.989946
 C         3.067616         0.223763         2.369695
 C         2.391246         0.704722         1.082121
 O         2.244941         0.574325        -0.961172
 H        -0.554918        -0.182816         1.066764
 H        -0.436635         0.854878        -0.306854
 H        -0.489030        -0.858859        -0.652387
 H         2.684019        -1.752575         1.046633
 H         2.369371        -1.902958        -0.868984
 H         5.512924        -0.579223         0.256051
 H         5.112911         0.970203         0.587833
 H         2.478243        -0.547321         2.940435
 H         3.372715         0.941533         3.040861
 H         2.287257         1.772126         0.938943
