19
Iteration:  4924
 C        -0.112245         0.007160        -0.115808
 C         1.324817        -0.045523         0.103292
 C         2.307186        -1.271139        -0.150836
 C         3.168177        -0.042896         0.144294
 C         4.626398         0.073300         0.575893
 O         4.513004        -0.113402         2.013951
 C         3.136707        -0.238849         2.422184
 C         2.375414         0.490992         1.283656
 O         2.297899         0.687331        -0.827007
 H        -0.314369         0.876220        -0.669713
 H        -0.555848        -0.885050        -0.567948
 H        -0.544762        -0.073647         0.897813
 H         2.332624        -2.260395         0.403154
 H         2.120883        -1.474670        -1.202558
 H         5.274009        -0.730217         0.262899
 H         5.092165         1.070301         0.307629
 H         2.812871        -1.298132         2.361044
 H         2.974204         0.188271         3.406343
 H         2.343468         1.574000         1.219329
