19
Iteration:  3559charge 0 multiplicity 1
 C        -0.136115         0.075396        -0.074186
 C         1.410581        -0.050104         0.018478
 C         2.274467        -1.336106         0.235514
 C         3.173464        -0.141866         0.127634
 C         4.601106         0.034210         0.502265
 O         4.474408        -0.222259         1.952276
 C         3.139282         0.141844         2.475138
 C         2.338789         0.563732         1.152632
 O         2.331531         0.434789        -0.994287
 H        -0.658465         0.445046         0.754931
 H        -0.146106         0.840223        -0.886647
 H        -0.593428        -0.784011        -0.346354
 H         2.256804        -1.804979         1.277753
 H         2.335247        -1.963697        -0.657662
 H         5.371390        -0.582295         0.123702
 H         4.920464         1.034491         0.421026
 H         2.711489        -0.861101         2.940735
 H         3.184343         1.003425         3.187436
 H         2.528780         1.653790         1.154429
