19
Iteration:  1211
 C         0.009176         0.071914        -0.029939
 C         1.403510        -0.204330         0.063097
 C         2.325027        -1.372752         0.056933
 C         3.153985        -0.090183         0.124267
 C         4.621132         0.134572         0.560345
 O         4.338260        -0.322804         1.913882
 C         3.144682         0.186685         2.507444
 C         2.262263         0.579638         1.169390
 O         2.357477         0.485494        -0.974574
 H        -0.387457        -0.089884         0.990532
 H        -0.098538         1.277233        -0.237047
 H        -0.530916        -0.537657        -0.769230
 H         2.267695        -1.991035         1.011272
 H         2.478646        -1.949109        -0.875899
 H         5.395891        -0.504501         0.165085
 H         4.846804         1.220213         0.422201
 H         2.705569        -0.582803         3.211775
 H         3.523705         1.015034         3.125300
 H         2.049884         1.694832         1.054306
