19
Iteration:   386
 C        -0.119191        -0.117153        -0.085631
 C         1.377574        -0.026894         0.109288
 C         2.299594        -1.302513         0.199674
 C         3.177624        -0.052720         0.141336
 C         4.645421        -0.035316         0.550171
 O         4.470301        -0.184530         1.942633
 C         3.054606         0.075497         2.393847
 C         2.341495         0.648710         1.143829
 O         2.377754         0.542811        -0.970286
 H        -0.481235        -0.416226         0.845356
 H        -0.590582         0.964017        -0.177563
 H        -0.438944        -0.813996        -0.930084
 H         2.171391        -1.924262         1.067938
 H         2.214042        -1.658797        -0.788973
 H         5.354714        -0.760128         0.142460
 H         5.197301         0.872214         0.262305
 H         2.607398        -0.862681         2.594554
 H         3.053649         0.647083         3.365498
 H         2.445599         1.781882         1.180751
