19
Iteration:  4264
 C        -0.060611         0.075150        -0.102454
 C         1.440346        -0.063683         0.195999
 C         2.272030        -1.293234        -0.072290
 C         3.166947        -0.028004         0.061188
 C         4.585542        -0.008641         0.592106
 O         4.476113        -0.036506         2.046173
 C         3.091339        -0.207414         2.407905
 C         2.329973         0.466834         1.250925
 O         2.312955         0.629488        -0.950089
 H        -0.523944         0.853546         0.525207
 H        -0.384523         0.328087        -1.182069
 H        -0.486475        -0.972217         0.102063
 H         2.494084        -2.075004         0.627914
 H         2.245982        -1.493815        -1.157132
 H         5.120766        -0.863729         0.179732
 H         5.192690         0.890493         0.302076
 H         2.926289        -1.339510         2.628607
 H         3.078333         0.211652         3.416974
 H         2.229221         1.526485         1.574386
