19
Iteration:  2669charge 0 multiplicity 1
 C        -0.065826         0.109319        -0.025329
 C         1.407818        -0.109401         0.068370
 C         2.219683        -1.353949         0.062973
 C         3.171653        -0.123896         0.071105
 C         4.583905        -0.149842         0.498709
 O         4.441764         0.087015         1.976783
 C         3.016099        -0.011039         2.437750
 C         2.399372         0.509720         1.191333
 O         2.423975         0.510359        -0.930124
 H        -0.470526         0.019697         0.990271
 H        -0.258109         1.199248        -0.275996
 H        -0.539317        -0.628739        -0.687375
 H         2.174325        -1.953409         0.967940
 H         2.208375        -1.891605        -0.873311
 H         5.123590        -1.060866         0.414457
 H         5.129973         0.748146         0.180936
 H         2.897410        -0.920136         2.919861
 H         3.090016         0.692890         3.286108
 H         2.426211         1.626321         1.218633
