19
Iteration:  3691charge 0 multiplicity 1
 C        -0.127386         0.146418        -0.124438
 C         1.368731        -0.124012         0.034232
 C         2.317106        -1.356655         0.020211
 C         3.217140        -0.145511         0.177184
 C         4.738001        -0.098426         0.551653
 O         4.559949         0.006276         1.992335
 C         3.053733         0.040572         2.429668
 C         2.312987         0.499914         1.287599
 O         2.213916         0.523098        -0.958736
 H        -0.366460         0.959168        -0.829252
 H        -0.858475        -0.706284        -0.335304
 H        -0.570716         0.440880         0.813123
 H         2.127719        -2.096197         0.881858
 H         2.313121        -1.824854        -0.958899
 H         5.243705        -1.025051         0.537946
 H         5.352050         0.688605         0.142245
 H         2.833087        -1.029990         2.668579
 H         3.164058         0.809568         3.239638
 H         2.243293         1.606110         1.340459
