19
Iteration:  2498
 C        -0.083086         0.027230        -0.039719
 C         1.434134        -0.042232         0.131990
 C         2.325278        -1.356032         0.099315
 C         3.167791        -0.103516         0.099681
 C         4.567963        -0.168780         0.522193
 O         4.439351        -0.055766         1.956116
 C         3.050701         0.130240         2.450231
 C         2.369775         0.647813         1.196564
 O         2.385419         0.502503        -0.979120
 H        -0.611457        -0.612773         0.646333
 H        -0.618241         1.009914         0.143611
 H        -0.386979        -0.296570        -0.988393
 H         2.209400        -2.000784         1.008287
 H         2.364455        -2.011607        -0.807546
 H         5.207217        -1.129795         0.324062
 H         5.181612         0.537120        -0.002215
 H         2.579649        -0.930723         2.636447
 H         3.073902         0.797639         3.273395
 H         2.242847         1.716654         1.162223
