19
Iteration:  4270
 C        -0.068326         0.086594        -0.101856
 C         1.382972        -0.117645         0.186512
 C         2.317265        -1.298951        -0.094847
 C         3.139593        -0.043158         0.059108
 C         4.593773         0.005935         0.568864
 O         4.461592        -0.028023         2.043823
 C         3.092627        -0.209609         2.410269
 C         2.321741         0.475274         1.277038
 O         2.372387         0.661080        -0.925321
 H        -0.530579         0.851498         0.505402
 H        -0.274991         0.177759        -1.134776
 H        -0.408155        -0.930050         0.259528
 H         2.240093        -2.126359         0.706364
 H         2.126804        -1.608398        -1.115290
 H         4.961544        -0.962223         0.142667
 H         5.118970         0.962013         0.314893
 H         2.887877        -1.249885         2.419529
 H         3.116085         0.274166         3.401016
 H         2.489081         1.548589         1.499658
