19
Iteration:  3095
 C        -0.132965         0.081596        -0.196064
 C         1.304803        -0.076680         0.230205
 C         2.222920        -1.303947         0.169139
 C         3.207260        -0.188070         0.028478
 C         4.580205        -0.006447         0.542393
 O         4.583492        -0.099570         1.980859
 C         3.082199        -0.000502         2.458356
 C         2.426844         0.607894         1.212571
 O         2.310045         0.499364        -0.956294
 H        -0.787207         0.352218         0.607541
 H        -0.235990         0.955455        -0.914973
 H        -0.284554        -0.852113        -0.671843
 H         2.406351        -1.926181         1.068696
 H         2.194688        -1.851931        -0.780794
 H         5.209798        -0.751494         0.231171
 H         4.981910         0.862475         0.091251
 H         2.838592        -1.110654         2.572242
 H         3.003417         0.657874         3.398056
 H         2.507462         1.737369         1.220636
