19
Iteration:  4030
 C        -0.057213         0.124440        -0.021764
 C         1.413929        -0.026134         0.037170
 C         2.265567        -1.352534         0.020499
 C         3.216027        -0.138769         0.083015
 C         4.554828         0.021274         0.544478
 O         4.519299        -0.046097         2.029884
 C         3.061681        -0.026348         2.476020
 C         2.314094         0.491369         1.183299
 O         2.346925         0.467879        -0.960513
 H        -0.493665         0.121436        -1.113523
 H        -0.672782        -0.692559         0.450565
 H        -0.223827         1.060584         0.525304
 H         2.216908        -2.069938         0.774487
 H         2.145696        -1.930209        -0.927651
 H         5.282559        -0.644190         0.081494
 H         4.864330         1.031635         0.289107
 H         2.768063        -1.080412         2.925702
 H         3.188254         0.564476         3.344189
 H         2.267239         1.607996         1.219146
