19
Iteration:  3956
 C        -0.170162         0.083746        -0.126546
 C         1.349979        -0.153612         0.152174
 C         2.331657        -1.303653         0.104910
 C         3.199903         0.003196         0.128765
 C         4.623716        -0.136473         0.502912
 O         4.507285        -0.026792         2.012264
 C         3.093834        -0.072745         2.389670
 C         2.304598         0.631395         1.251706
 O         2.357843         0.522043        -0.971892
 H        -0.410251         0.412381        -1.200842
 H        -0.735768        -0.814500         0.010466
 H        -0.475296         0.881596         0.593278
 H         2.336451        -2.033724         0.981684
 H         2.405875        -1.865855        -0.868850
 H         5.169214        -1.037632         0.229599
 H         5.345379         0.593598         0.033515
 H         2.854217        -1.110318         2.678360
 H         3.020120         0.560117         3.285899
 H         2.271912         1.710798         1.322295
