19
Iteration:  1354
 C        -0.152609         0.211980        -0.115818
 C         1.362978        -0.127412         0.133651
 C         2.177375        -1.414189         0.089798
 C         3.209095        -0.188446         0.055997
 C         4.641920         0.038361         0.481722
 O         4.508763         0.216830         2.078341
 C         3.146541        -0.131232         2.400266
 C         2.354713         0.388277         1.241854
 O         2.395545         0.460973        -0.951741
 H        -0.808605         0.210608         0.682518
 H        -0.002117         1.298596        -0.506095
 H        -0.541699        -0.440342        -0.908044
 H         2.086656        -2.096021         0.950578
 H         1.987614        -2.047677        -0.787845
 H         5.258730        -0.822113         0.364310
 H         5.147434         0.990930         0.249973
 H         2.925203        -1.305700         2.509804
 H         2.822676         0.389730         3.327099
 H         2.206750         1.491867         1.198116
