19
Iteration:  3431
 C        -0.077874         0.157918        -0.122543
 C         1.428458        -0.105866         0.154731
 C         2.231846        -1.424762         0.259500
 C         3.140168        -0.162740         0.102657
 C         4.568928        -0.005134         0.543039
 O         4.545004        -0.061234         1.992464
 C         3.103778         0.078528         2.362140
 C         2.349423         0.581882         1.120335
 O         2.339331         0.415224        -0.997734
 H        -0.685123        -0.768468         0.060300
 H        -0.653716         1.036551         0.475442
 H        -0.021309         0.588623        -1.136674
 H         2.557879        -1.973891         1.164651
 H         2.118168        -2.063502        -0.561609
 H         5.200616        -0.838015         0.131397
 H         4.859901         1.028593         0.341757
 H         2.706270        -0.742589         2.841790
 H         3.076863         0.827330         3.160331
 H         2.183951         1.634158         1.118683
