19
Iteration:   891charge 0 multiplicity 1
 C        -0.206113         0.043588        -0.049732
 C         1.392621        -0.111082         0.117864
 C         2.310882        -1.347340         0.002572
 C         3.226532        -0.044076         0.081563
 C         4.665474        -0.081609         0.584071
 O         4.504988        -0.040158         1.966638
 C         3.034754         0.045685         2.443164
 C         2.301264         0.538571         1.211637
 O         2.373869         0.557994        -0.943005
 H        -0.737512        -0.763028         0.626720
 H        -0.564651         0.921421         0.193724
 H        -0.536288        -0.186678        -1.053340
 H         2.644928        -2.033184         0.829937
 H         2.112372        -2.008938        -0.869039
 H         5.170708        -0.974239         0.212725
 H         5.264180         0.807327         0.252690
 H         2.770904        -0.986896         2.751093
 H         3.189117         0.675538         3.334228
 H         2.346859         1.583356         1.200795
