19
Iteration:  1022
 C        -0.106931         0.050545        -0.202274
 C         1.283861        -0.063460         0.115354
 C         2.184168        -1.318752         0.086621
 C         3.216825        -0.123582         0.150222
 C         4.649350         0.015529         0.521757
 O         4.558955        -0.052434         2.044867
 C         3.157242        -0.049308         2.452359
 C         2.345651         0.519699         1.203571
 O         2.331457         0.538421        -0.956314
 H        -0.719961        -0.421406         0.662257
 H        -0.415650         1.003390        -0.247002
 H        -0.356116        -0.500128        -1.145329
 H         2.231829        -1.857396         1.044655
 H         2.024063        -1.838997        -0.841859
 H         5.139352        -0.886876         0.229097
 H         5.084755         0.960118         0.177447
 H         3.016319        -0.998961         2.805217
 H         3.087575         0.654069         3.279725
 H         2.328361         1.582121         1.241810
