19
Iteration:  3873charge 0 multiplicity 1
 C        -0.027434         0.145865        -0.075606
 C         1.388180        -0.193270         0.260859
 C         2.368591        -1.318563         0.040827
 C         3.219657        -0.049666         0.107377
 C         4.624640         0.072547         0.491447
 O         4.389271        -0.184694         1.985404
 C         3.017174        -0.039408         2.441715
 C         2.339793         0.510234         1.173167
 O         2.298519         0.555789        -1.003998
 H        -0.428665        -0.700391        -0.577582
 H        -0.522633         0.399945         0.901111
 H        -0.033020         1.111448        -0.709324
 H         2.436967        -2.001860         0.909716
 H         2.412927        -1.817149        -0.875703
 H         5.254916        -0.786534         0.203090
 H         4.992202         1.036121         0.301892
 H         2.744251        -1.137200         2.854494
 H         3.101942         0.622229         3.363659
 H         2.289547         1.636370         1.198756
