19
Iteration:  3361charge 0 multiplicity 1
 C        -0.093620         0.060579        -0.080376
 C         1.397345        -0.088392         0.205011
 C         2.214864        -1.376631         0.085396
 C         3.164970        -0.142453         0.113371
 C         4.648375        -0.183364         0.497851
 O         4.478594         0.088906         1.973346
 C         3.031498         0.064164         2.462096
 C         2.390561         0.550072         1.118583
 O         2.389864         0.519013        -0.927986
 H        -0.661318        -0.316346         0.765305
 H        -0.338838         1.073301        -0.263079
 H        -0.347804        -0.462844        -1.011424
 H         2.245654        -2.126526         0.903373
 H         1.986351        -1.868876        -0.927051
 H         5.122323        -1.129968         0.456777
 H         5.095132         0.648175        -0.154112
 H         2.948169        -0.811879         2.921401
 H         3.009768         0.851552         3.221734
 H         2.425645         1.651917         1.093087
