19
Iteration:  4848
 C        -0.216485         0.109854        -0.058232
 C         1.315823        -0.084782         0.108630
 C         2.269912        -1.336834        -0.103920
 C         3.267585        -0.088503         0.023925
 C         4.673175         0.085090         0.584886
 O         4.476858         0.023021         2.048747
 C         3.125136        -0.263661         2.377819
 C         2.389888         0.383998         1.248052
 O         2.334845         0.655677        -0.848193
 H        -0.404837         0.910613         0.593384
 H        -0.353010         0.422003        -1.086464
 H        -0.881768        -0.750727         0.139150
 H         2.247672        -2.137716         0.787574
 H         2.209654        -1.850000        -1.056330
 H         5.312317        -0.663060         0.238202
 H         5.079543         1.021536         0.333962
 H         2.914412        -1.370415         2.658133
 H         3.019075         0.242575         3.358700
 H         2.396419         1.499341         1.206983
