19
Iteration:  2419charge 0 multiplicity 1
 C        -0.005648         0.250339        -0.104188
 C         1.351512        -0.189277         0.147460
 C         2.248601        -1.449312         0.138741
 C         3.151860        -0.185950         0.084634
 C         4.636733        -0.016087         0.496028
 O         4.474924         0.121564         1.886314
 C         3.060370         0.000872         2.464917
 C         2.281816         0.424345         1.240893
 O         2.403371         0.472929        -0.939793
 H        -0.604711         0.282216         0.743361
 H        -0.072557         1.153612        -0.695692
 H        -0.746915        -0.242037        -0.740772
 H         2.319613        -1.900124         1.186602
 H         2.116513        -2.114454        -0.731726
 H         5.328112        -0.972816         0.348674
 H         5.092944         0.907304         0.228529
 H         2.840228        -1.076663         2.833571
 H         3.162082         0.697038         3.366188
 H         2.236228         1.571959         1.243119
