19
Iteration:  4363
 C        -0.069573         0.078480        -0.087330
 C         1.466911        -0.091021         0.026445
 C         2.393545        -1.338797         0.012350
 C         3.155455        -0.042748         0.139442
 C         4.570045         0.094299         0.517531
 O         4.473666        -0.166500         1.957318
 C         3.048868        -0.255793         2.468783
 C         2.317139         0.440805         1.260595
 O         2.318115         0.753100        -0.892956
 H        -0.332655         0.954327        -0.786647
 H        -0.736476        -0.766272        -0.466050
 H        -0.404955         0.197317         0.979515
 H         2.086561        -1.983284         0.742962
 H         2.331886        -1.738720        -1.028645
 H         5.316817        -0.617426         0.209228
 H         4.922529         1.161483         0.435455
 H         2.708427        -1.294620         2.658056
 H         2.973638         0.382491         3.347275
 H         2.306464         1.536714         1.377274
