19
Iteration:   821
 C        -0.060268         0.190588        -0.175262
 C         1.359741        -0.152488         0.068531
 C         2.183684        -1.439457        -0.044786
 C         3.082063        -0.205529         0.164845
 C         4.586459        -0.032238         0.593784
 O         4.550226         0.337578         1.925098
 C         3.172743        -0.159214         2.480512
 C         2.317324         0.393419         1.313372
 O         2.382333         0.511234        -0.858006
 H        -0.651058        -0.160975         0.582191
 H        -0.250077         1.368956        -0.114311
 H        -0.505655        -0.199860        -1.088963
 H         2.067430        -2.243088         0.671456
 H         2.156622        -1.982168        -1.003553
 H         5.240491        -1.010187         0.466641
 H         5.042796         0.806029         0.016346
 H         3.254174        -1.184702         2.409629
 H         3.002766         0.194253         3.523258
 H         2.447657         1.538958         1.209525
