19
Iteration:  1456charge 0 multiplicity 1
 C        -0.094196        -0.078480        -0.068656
 C         1.397415        -0.047869         0.174486
 C         2.270869        -1.357721         0.157361
 C         3.191884        -0.055945         0.152713
 C         4.625582         0.022891         0.487205
 O         4.396851        -0.301150         1.920693
 C         3.088921         0.202360         2.383352
 C         2.316721         0.638290         1.188455
 O         2.430275         0.548875        -0.951854
 H        -0.511081        -0.895250         0.496408
 H        -0.445012         0.877761         0.136894
 H        -0.241282        -0.192321        -1.142019
 H         2.272749        -1.936365         1.093002
 H         2.211651        -2.034703        -0.694126
 H         5.243081        -0.860399         0.272091
 H         5.173112         0.891099         0.221686
 H         2.576064        -0.705393         2.916250
 H         3.061563         1.135978         2.964868
 H         2.285540         1.707863         1.085942
