19
Iteration:   922
 C         0.041494        -0.030801         0.048863
 C         1.480245        -0.048658         0.093262
 C         2.288431        -1.326721         0.080297
 C         3.241155        -0.062810         0.040177
 C         4.620598         0.090160         0.611899
 O         4.370931        -0.328946         1.963046
 C         2.977289         0.104026         2.377152
 C         2.356099         0.654561         1.147555
 O         2.281536         0.508563        -0.986255
 H        -0.252667        -0.594087         1.006133
 H        -0.346489         0.930932         0.179663
 H        -0.457964        -0.468854        -0.769079
 H         2.498056        -1.972449         0.954835
 H         2.026490        -1.872377        -0.858576
 H         5.456824        -0.471193         0.168270
 H         4.944244         1.145131         0.521212
 H         2.501697        -0.753293         2.712028
 H         3.162681         0.735154         3.262265
 H         2.385997         1.720354         0.950182
