19
Iteration:  3267
 C        -0.157273         0.148541        -0.120736
 C         1.373528        -0.140056         0.099797
 C         2.223634        -1.371640         0.139416
 C         3.165279        -0.119720         0.081896
 C         4.661794         0.030104         0.525861
 O         4.561393        -0.087578         1.974968
 C         3.142443         0.069524         2.496832
 C         2.321196         0.516780         1.176521
 O         2.331818         0.449395        -0.974961
 H        -0.695758        -0.223671         0.768284
 H        -0.384158         1.258819        -0.495306
 H        -0.373724        -0.336212        -1.059692
 H         2.157580        -1.893988         1.100427
 H         2.134474        -2.166329        -0.603712
 H         5.367035        -0.840725         0.244109
 H         5.007943         1.027861         0.407341
 H         2.901453        -0.848519         3.018713
 H         2.996979         0.889631         3.210527
 H         2.259118         1.574339         1.163173
