19
Iteration:   458
 C        -0.052817         0.055486        -0.013813
 C         1.443925        -0.122348         0.057504
 C         2.346897        -1.368055         0.003321
 C         3.255156        -0.113414         0.169750
 C         4.643688         0.154395         0.656774
 O         4.373409        -0.381283         1.953459
 C         3.091505         0.251060         2.477729
 C         2.319266         0.540406         1.138708
 O         2.223269         0.476856        -1.030168
 H        -0.452305        -0.303628         0.986091
 H        -0.430495         1.058409        -0.078403
 H        -0.509339        -0.579645        -0.792599
 H         2.474091        -2.100239         0.815404
 H         2.357168        -1.661732        -1.075740
 H         5.446031        -0.383952         0.195582
 H         4.898932         1.213538         0.612842
 H         2.814414        -0.483932         3.236364
 H         3.390564         1.151528         2.999013
 H         2.311230         1.611247         0.995999
