19
Iteration:   865
 C        -0.045983         0.065857        -0.141405
 C         1.438881        -0.113324         0.062541
 C         2.196913        -1.395835        -0.025117
 C         3.176746        -0.114499         0.199294
 C         4.555319        -0.138151         0.542521
 O         4.529971         0.214469         2.001149
 C         3.157752        -0.081258         2.438705
 C         2.369575         0.459600         1.251235
 O         2.247636         0.578955        -0.888627
 H        -0.712953        -0.572981         0.340675
 H        -0.352464         1.220967         0.077734
 H        -0.093069        -0.127744        -1.226780
 H         2.207523        -2.084761         0.825852
 H         2.227095        -1.980043        -0.976335
 H         4.948070        -1.224473         0.374544
 H         5.012495         0.730753         0.046154
 H         3.013845        -1.102916         2.608165
 H         3.151244         0.507408         3.370750
 H         2.390899         1.599809         1.382843
