19
Iteration:  4744charge 0 multiplicity 1
 C        -0.102906        -0.030832        -0.058454
 C         1.369444        -0.100054         0.165585
 C         2.389936        -1.311896        -0.035098
 C         3.192081        -0.009811         0.125765
 C         4.589840         0.173383         0.535984
 O         4.454526        -0.441638         1.942679
 C         3.060352        -0.035861         2.375014
 C         2.331504         0.633171         1.276236
 O         2.340140         0.663295        -0.857342
 H        -0.632041         0.971530         0.223547
 H        -0.328915        -0.070946        -1.142349
 H        -0.621500        -0.807361         0.499376
 H         2.493387        -2.154347         0.573622
 H         2.459367        -1.689184        -1.110630
 H         5.356286        -0.439421        -0.057039
 H         4.810050         1.299315         0.511965
 H         2.709698        -1.039602         2.658737
 H         3.129384         0.683079         3.225768
 H         2.372020         1.713626         1.189829
