19
Iteration:  4471charge 0 multiplicity 1
 C        -0.103880        -0.033814        -0.050486
 C         1.386780        -0.029566         0.112768
 C         2.359040        -1.321025         0.013324
 C         3.167090        -0.061650         0.098979
 C         4.657830         0.131245         0.617264
 O         4.444536        -0.375929         1.948820
 C         3.012018        -0.078062         2.365486
 C         2.450033         0.575738         1.204883
 O         2.262591         0.727628        -0.888432
 H        -0.546109         0.720564         0.627185
 H        -0.359674         0.117570        -1.129498
 H        -0.563491        -0.999569         0.207936
 H         2.540612        -2.155458         0.820037
 H         2.445451        -1.849027        -1.082888
 H         5.466704        -0.388216         0.145748
 H         4.948518         1.237055         0.558894
 H         2.569246        -0.934263         2.859894
 H         3.084894         0.596994         3.186726
 H         2.375482         1.668331         1.046674
