19
Iteration:  3764charge 0 multiplicity 1
 C        -0.107148         0.024984        -0.060656
 C         1.330080        -0.095713         0.123495
 C         2.371706        -1.286117         0.095934
 C         3.201467        -0.070336         0.057880
 C         4.621289         0.025537         0.597633
 O         4.461576        -0.269165         1.993865
 C         3.122510         0.007968         2.475395
 C         2.324388         0.615636         1.176650
 O         2.294607         0.518149        -1.034466
 H        -0.303932         0.243149        -1.086370
 H        -0.983913        -0.530058         0.327593
 H        -0.482199         1.113676         0.237064
 H         2.408725        -1.817944         1.031430
 H         2.486055        -1.885821        -0.739548
 H         5.352781        -0.659866         0.030291
 H         5.006039         1.125212         0.493409
 H         2.791048        -0.923046         2.837405
 H         3.302046         0.782801         3.164541
 H         2.376288         1.730475         1.307314
