19
Iteration:  1180
 C        -0.145896         0.033892        -0.149983
 C         1.295053        -0.074643         0.193479
 C         2.286547        -1.361612         0.067209
 C         3.258826        -0.169221         0.098197
 C         4.698489         0.083394         0.579037
 O         4.490434        -0.248456         1.983591
 C         3.107643         0.088997         2.476111
 C         2.362267         0.596224         1.154111
 O         2.243657         0.539671        -0.944117
 H        -0.764421        -0.007617         0.643232
 H        -0.156755         1.012100        -0.787098
 H        -0.232384        -0.767898        -0.849199
 H         2.319865        -1.933224         1.018475
 H         2.264110        -1.906073        -0.879120
 H         5.524146        -0.550723         0.312813
 H         4.979932         1.121756         0.361237
 H         2.710972        -0.723629         2.944460
 H         3.327553         0.860260         3.201066
 H         2.346863         1.700289         0.940201
