19
Iteration:   754
 C        -0.014646        -0.023662         0.046332
 C         1.413815        -0.021372         0.081985
 C         2.318740        -1.266650         0.070093
 C         3.184742        -0.043289         0.080712
 C         4.603528        -0.003343         0.594464
 O         4.407185        -0.191006         1.969362
 C         3.006787         0.036457         2.427444
 C         2.383194         0.601686         1.153134
 O         2.303901         0.477200        -1.020316
 H        -0.160420        -0.516255         0.905350
 H        -0.502488         1.040584         0.034227
 H        -0.409587        -0.666334        -0.769312
 H         2.276112        -1.941878         0.946222
 H         2.515751        -1.899720        -0.781137
 H         5.355291        -0.728423         0.076816
 H         5.046814         0.991558         0.393752
 H         2.523597        -0.843106         2.760390
 H         3.139590         0.715955         3.268734
 H         2.504390         1.745959         1.077401
