19
Iteration:  3591charge 0 multiplicity 1
 C        -0.046369         0.177255        -0.068478
 C         1.413893        -0.178722         0.211333
 C         2.224897        -1.413322         0.085255
 C         3.209967        -0.118287         0.084510
 C         4.620684        -0.007771         0.517694
 O         4.442902        -0.043252         1.977387
 C         3.131707         0.135053         2.384980
 C         2.347073         0.500443         1.211237
 O         2.286104         0.418550        -0.926176
 H        -0.532013         0.949041         0.452342
 H         0.026363         0.605276        -1.103602
 H        -0.756674        -0.543300        -0.342374
 H         2.322920        -2.250099         0.838585
 H         2.173036        -1.780222        -0.935527
 H         5.252162        -0.801343         0.325598
 H         5.096380         0.916844         0.329031
 H         2.924789        -0.822490         2.947327
 H         3.047025         0.843862         3.189831
 H         2.382788         1.572998         0.918804
