19
Iteration:  1081charge 0 multiplicity 1
 C        -0.098844         0.250884        -0.001586
 C         1.396639        -0.140293         0.049611
 C         2.221687        -1.449402        -0.062048
 C         3.187477        -0.215570         0.127663
 C         4.744756        -0.042102         0.657817
 O         4.447686         0.217493         2.021163
 C         3.096413        -0.052979         2.509734
 C         2.352037         0.406000         1.159129
 O         2.259746         0.487078        -1.036781
 H        -0.615668        -0.494125         0.428147
 H        -0.233446         1.268276         0.550307
 H        -0.374234         0.359326        -1.023500
 H         2.264544        -2.299555         0.762372
 H         2.183840        -2.055839        -1.030657
 H         5.241891        -1.019159         0.400705
 H         5.325124         0.715249         0.099061
 H         3.121485        -1.111090         2.864192
 H         2.997398         0.568248         3.410415
 H         2.388390         1.561530         1.055446
