19
Iteration:   419
 C         0.002877        -0.158031         0.026121
 C         1.417933        -0.100473         0.155137
 C         2.412381        -1.229759         0.194628
 C         3.199869         0.091578         0.052028
 C         4.594154        -0.066498         0.583584
 O         4.325513        -0.359653         1.936787
 C         3.058424         0.139041         2.397951
 C         2.353404         0.692378         1.141570
 O         2.317014         0.591959        -1.066114
 H        -0.386946        -0.347923         0.978773
 H        -0.360691         0.857711        -0.450951
 H        -0.333383        -1.029694        -0.606761
 H         2.516728        -1.989808         0.987777
 H         2.289977        -1.788378        -0.717176
 H         4.983792        -1.021215         0.219508
 H         5.116230         0.919211         0.589396
 H         2.514212        -0.695097         2.804049
 H         3.061768         0.962787         3.189447
 H         2.273022         1.832629         1.008289
