19
Iteration:    82
 C         0.001857         0.065892        -0.085670
 C         1.354601        -0.140842         0.260730
 C         2.286334        -1.356886         0.077775
 C         3.153110        -0.094666         0.119756
 C         4.574263        -0.102386         0.576357
 O         4.458741         0.205627         1.955079
 C         3.095549        -0.084439         2.314129
 C         2.263037         0.547057         1.245684
 O         2.414619         0.496056        -0.972940
 H        -0.827813        -0.331834         0.629634
 H        -0.180363         1.228068        -0.143290
 H        -0.241775        -0.320328        -1.153337
 H         2.358438        -2.024424         0.982958
 H         2.147945        -2.025434        -0.810647
 H         5.111072        -1.098210         0.335986
 H         5.262581         0.586006         0.019045
 H         2.928315        -1.187400         2.286631
 H         2.884364         0.095436         3.379515
 H         2.265318         1.697013         1.210071
