19
Iteration:   259charge 0 multiplicity 1
 C        -0.098538        -0.012448        -0.090561
 C         1.408233        -0.093822         0.070432
 C         2.248111        -1.277397        -0.031972
 C         3.197927        -0.070732         0.093129
 C         4.628262        -0.199567         0.566388
 O         4.492763         0.093293         1.967983
 C         3.142091         0.084579         2.512732
 C         2.286568         0.474365         1.234677
 O         2.338826         0.562224        -0.945219
 H        -0.506485        -0.462541         0.887145
 H        -0.528298         0.943216        -0.248143
 H        -0.492775        -0.723797        -0.776374
 H         2.168810        -2.014338         0.858653
 H         2.355227        -1.899994        -0.952101
 H         4.806737        -1.298345         0.445673
 H         5.337882         0.552264         0.272584
 H         2.882415        -0.970693         2.943814
 H         3.112711         0.804424         3.318724
 H         2.235108         1.572480         1.176040
