19
Iteration:  1973
 C         0.018664         0.072482        -0.162835
 C         1.393393        -0.118625         0.158303
 C         2.328636        -1.377962         0.212040
 C         3.162717        -0.079557         0.042654
 C         4.607432         0.048470         0.491786
 O         4.510898        -0.185133         2.005245
 C         3.150402         0.054896         2.435532
 C         2.303479         0.618584         1.190549
 O         2.199629         0.510657        -0.944233
 H        -0.626383         0.040939         0.675416
 H        -0.269863         1.082065        -0.645363
 H        -0.371036        -0.659040        -0.934228
 H         2.306526        -1.956480         1.112801
 H         2.251113        -2.117418        -0.591669
 H         5.338818        -0.798210         0.207376
 H         5.088752         0.982525         0.210530
 H         2.627043        -0.936489         2.790255
 H         2.898601         0.703752         3.300084
 H         2.237360         1.665702         1.036360
