19
Iteration:  4454
 C        -0.160603        -0.018626        -0.017948
 C         1.388035        -0.122467         0.153835
 C         2.438676        -1.262173        -0.051028
 C         3.244859         0.086840         0.085043
 C         4.605421         0.095740         0.561941
 O         4.409763        -0.405415         1.922848
 C         3.057054        -0.015600         2.426949
 C         2.265116         0.552262         1.254720
 O         2.398076         0.650250        -0.886104
 H        -0.574387         0.974750         0.308654
 H        -0.448308         0.009106        -1.077312
 H        -0.594437        -0.924720         0.394128
 H         2.385388        -1.982939         0.713257
 H         2.358380        -1.739497        -0.970044
 H         5.266043        -0.609912        -0.005033
 H         4.924525         1.148860         0.427065
 H         2.683688        -1.034775         2.685013
 H         3.225052         0.627826         3.366595
 H         2.213701         1.655408         1.162470
