19
Iteration:  3486charge 0 multiplicity 1
 C        -0.108498         0.044505         0.017161
 C         1.396956        -0.179501         0.113369
 C         2.262487        -1.287043         0.144974
 C         3.220123        -0.092951         0.104130
 C         4.660989        -0.070614         0.595900
 O         4.490477        -0.255322         2.036356
 C         3.078565         0.242618         2.470928
 C         2.304765         0.620405         1.019456
 O         2.307301         0.481933        -1.092050
 H        -0.714349        -0.829291         0.385745
 H        -0.338061         1.023426         0.575041
 H        -0.452255         0.089053        -1.054722
 H         2.397514        -1.715544         1.165142
 H         2.221365        -1.934816        -0.680211
 H         5.278183        -0.979360         0.265596
 H         5.252937         0.862784         0.277832
 H         2.742037        -0.485747         3.100395
 H         3.329587         1.172363         3.004416
 H         2.158497         1.669960         0.808389
