19
Iteration:   360charge 0 multiplicity 1
 C        -0.039822         0.135501        -0.135278
 C         1.397431        -0.121610         0.144326
 C         2.252905        -1.398866         0.050208
 C         3.184282        -0.175995         0.015772
 C         4.632310         0.058437         0.512334
 O         4.526814        -0.037404         2.050431
 C         3.083330         0.084625         2.510162
 C         2.371806         0.459572         1.175050
 O         2.234399         0.468616        -0.927857
 H        -0.681921        -0.463606         0.572813
 H        -0.276877         1.130689        -0.048861
 H        -0.243509        -0.190392        -1.145985
 H         2.358961        -2.041414         0.953125
 H         1.951588        -1.957651        -0.866703
 H         5.459375        -0.569117         0.250162
 H         4.984103         1.091633         0.198496
 H         2.759719        -0.918092         2.918463
 H         2.959512         0.843544         3.340879
 H         2.388294         1.508804         1.149410
