19
Iteration:  4266charge 0 multiplicity 1
 C        -0.066649         0.073815        -0.104160
 C         1.427952        -0.084701         0.198652
 C         2.287371        -1.295582        -0.074445
 C         3.152424        -0.035514         0.057295
 C         4.591174         0.002077         0.585497
 O         4.469485        -0.033966         2.049725
 C         3.091792        -0.205734         2.403595
 C         2.325590         0.470997         1.253035
 O         2.332514         0.638565        -0.943809
 H        -0.529437         0.864033         0.519360
 H        -0.367312         0.277616        -1.151219
 H        -0.398540        -0.880381         0.124549
 H         2.414301        -2.068205         0.644919
 H         2.195669        -1.510877        -1.193029
 H         5.043355        -0.901840         0.145216
 H         5.132784         0.859877         0.328477
 H         2.928997        -1.313536         2.561784
 H         3.128326         0.241782         3.457184
 H         2.328612         1.499592         1.590166
