19
Iteration:   988charge 0 multiplicity 1
 C        -0.040074        -0.026381        -0.139840
 C         1.407007        -0.064837         0.122403
 C         2.316507        -1.278573         0.048805
 C         3.201140        -0.085841         0.143125
 C         4.627205         0.026869         0.497222
 O         4.394707        -0.279585         1.940050
 C         3.092858         0.121218         2.472296
 C         2.371697         0.585898         1.191179
 O         2.275839         0.543557        -0.862639
 H        -0.577531        -0.085172         0.889462
 H        -0.296677         0.843701        -0.623572
 H        -0.404923        -0.858181        -0.744891
 H         2.467922        -2.014788         0.814627
 H         2.130379        -1.790540        -0.873578
 H         5.281721        -0.744327         0.137250
 H         5.172946         0.949431         0.383335
 H         2.643167        -0.651613         2.961948
 H         3.207943         0.983968         3.152717
 H         2.352153         1.636179         1.195261
