19
Iteration:  1927
 C        -0.044938         0.082202        -0.139450
 C         1.369172        -0.097643         0.035658
 C         2.101654        -1.401249         0.055936
 C         3.123276        -0.198417         0.202243
 C         4.552748        -0.129802         0.519952
 O         4.555989         0.155947         2.014361
 C         3.189241         0.060397         2.426650
 C         2.343164         0.471644         1.291615
 O         2.405505         0.533536        -0.978799
 H        -0.620880        -0.749704         0.405386
 H        -0.516305         0.914191         0.262282
 H        -0.357688         0.027775        -1.156467
 H         2.084757        -2.168711         0.804558
 H         2.262182        -1.927806        -0.865206
 H         5.092424        -0.918917         0.105097
 H         4.985774         0.805504         0.142906
 H         3.016039        -0.970170         3.004606
 H         3.242966         0.779369         3.320558
 H         2.245115         1.576244         1.248980
