19
Iteration:  1630
 C        -0.122649         0.150858        -0.205453
 C         1.278047        -0.169688         0.151829
 C         2.233357        -1.455296        -0.020431
 C         3.105457        -0.209981         0.135191
 C         4.565112        -0.043556         0.552912
 O         4.576169         0.131065         1.990905
 C         3.206019         0.053041         2.531617
 C         2.320096         0.493258         1.238983
 O         2.398563         0.503689        -0.904847
 H        -0.732129        -0.701276         0.192154
 H        -0.341767         1.183004         0.275160
 H        -0.088880         0.300521        -1.326051
 H         2.119449        -2.124406         0.819333
 H         2.221322        -1.958501        -0.967372
 H         5.125377        -0.964046         0.337177
 H         4.912319         0.841764         0.002303
 H         3.031107        -0.955413         2.801501
 H         3.240518         0.680451         3.412793
 H         2.319327         1.559031         1.018972
