19
Iteration:  2525
 C        -0.060624        -0.007792         0.035226
 C         1.417748        -0.080338         0.148490
 C         2.314747        -1.259845         0.053793
 C         3.259241        -0.102452         0.018455
 C         4.738562        -0.187535         0.698422
 O         4.447197        -0.186419         2.063184
 C         3.022092         0.189430         2.369201
 C         2.408406         0.661407         1.072309
 O         2.183855         0.517403        -1.059385
 H        -0.655879        -0.738645         0.699085
 H        -0.455824         0.870156         0.516203
 H        -0.510871        -0.151088        -1.037913
 H         2.370454        -1.928014         0.916630
 H         2.151417        -1.860764        -0.816233
 H         5.303696        -1.068811         0.428014
 H         5.280972         0.744923         0.204438
 H         2.461633        -0.652550         2.698017
 H         2.933161         0.988458         3.208454
 H         2.249688         1.781529         0.920967
