19
Iteration:  2724charge 0 multiplicity 1
 C        -0.053056         0.186997         0.001066
 C         1.389099        -0.096491         0.064171
 C         2.200226        -1.432790         0.096788
 C         3.199681        -0.198132         0.052747
 C         4.667491        -0.088395         0.490289
 O         4.450940         0.097476         1.999700
 C         3.034378         0.043675         2.478999
 C         2.356992         0.464990         1.205472
 O         2.352930         0.486371        -0.999010
 H        -0.640885        -0.661018         0.278328
 H        -0.447630         1.107901         0.589629
 H        -0.383064         0.454319        -0.979606
 H         2.211409        -2.048693         0.958000
 H         2.191854        -1.974620        -0.851811
 H         5.289032        -0.951927         0.440062
 H         5.253444         0.772798         0.197541
 H         2.892403        -1.070463         2.776215
 H         3.188566         0.724303         3.328425
 H         2.468803         1.587128         1.126069
