19
Iteration:  1974
 C         0.025844         0.068579        -0.150934
 C         1.394687        -0.118244         0.154410
 C         2.331264        -1.368461         0.208637
 C         3.168784        -0.080831         0.038718
 C         4.601421         0.055092         0.492950
 O         4.509788        -0.189663         2.002002
 C         3.136463         0.050786         2.437035
 C         2.302864         0.625803         1.199484
 O         2.203583         0.503725        -0.951120
 H        -0.617637         0.057395         0.676148
 H        -0.286806         1.084156        -0.676627
 H        -0.408421        -0.650872        -0.925998
 H         2.314689        -1.943098         1.129182
 H         2.257478        -2.140121        -0.577535
 H         5.321973        -0.837305         0.158673
 H         5.107027         0.998029         0.256050
 H         2.641687        -0.938514         2.788785
 H         2.941932         0.719767         3.310851
 H         2.204310         1.667840         1.036584
