19
Iteration:  1405charge 0 multiplicity 1
 C        -0.053205         0.093456        -0.025996
 C         1.386822        -0.098652         0.169954
 C         2.308929        -1.380440         0.034005
 C         3.218026        -0.167818         0.042205
 C         4.694966        -0.120649         0.637797
 O         4.477671         0.048739         1.982729
 C         2.983261         0.017860         2.404423
 C         2.381117         0.503497         1.097037
 O         2.245086         0.586687        -0.941864
 H        -0.540427        -0.571391         0.863700
 H        -0.263389         1.154778         0.051031
 H        -0.386459        -0.387559        -0.949107
 H         2.298879        -2.080126         0.930109
 H         2.163728        -2.038746        -0.848246
 H         5.467806        -0.922425         0.476201
 H         5.253656         0.816657         0.301100
 H         2.584662        -0.891610         2.696479
 H         2.869637         0.826437         3.138339
 H         2.372624         1.603425         0.924271
