19
Iteration:  3775
 C        -0.147639         0.099004        -0.077990
 C         1.379018        -0.129199         0.186969
 C         2.397482        -1.343135         0.069625
 C         3.200660         0.019313         0.034830
 C         4.647805         0.011023         0.554923
 O         4.454131        -0.300190         2.006954
 C         3.103569         0.055443         2.470273
 C         2.316543         0.568286         1.155882
 O         2.262745         0.564225        -1.001742
 H        -0.184883        -0.286215        -1.046819
 H        -0.650953        -0.722317         0.492535
 H        -0.386156         1.210824         0.115384
 H         2.575013        -1.992183         0.917829
 H         2.259696        -1.882444        -0.805486
 H         5.367507        -0.832194         0.308055
 H         5.187111         1.003503         0.452766
 H         2.693606        -0.753480         3.036572
 H         3.158666         0.817244         3.222075
 H         2.162308         1.676540         1.038810
