19
Iteration:    14
 C        -0.053040         0.125555        -0.060466
 C         1.395062        -0.181657         0.128530
 C         2.141151        -1.455074        -0.040564
 C         3.222790        -0.128944         0.155653
 C         4.652372         0.179987         0.545688
 O         4.487475        -0.002494         1.962855
 C         3.047166         0.085774         2.430814
 C         2.319781         0.439929         1.202301
 O         2.401875         0.410635        -0.865228
 H        -0.626534        -0.293253         0.664943
 H        -0.235829         1.336388        -0.152676
 H        -0.298164        -0.443310        -1.106032
 H         1.999695        -2.068828         0.844781
 H         1.983699        -1.940606        -1.062308
 H         5.244979        -0.675046         0.171765
 H         5.196608         0.990609         0.198323
 H         2.795329        -0.824474         2.936979
 H         3.074290         0.868710         3.219540
 H         2.361533         1.565574         0.937392
