19
Iteration:   829charge 0 multiplicity 1
 C        -0.138286         0.193215        -0.156663
 C         1.341852        -0.168946         0.111569
 C         2.139245        -1.431525        -0.036709
 C         3.181798        -0.168006         0.213680
 C         4.633441        -0.077859         0.541804
 O         4.500164         0.363369         1.954721
 C         3.198375        -0.148688         2.424942
 C         2.345262         0.356196         1.302179
 O         2.399644         0.524769        -0.837049
 H        -0.946983        -0.295187         0.458681
 H        -0.230000         1.369197        -0.341812
 H        -0.235745        -0.196323        -1.257118
 H         2.097692        -2.173500         0.788878
 H         2.065458        -1.815264        -1.034378
 H         5.289954        -0.979731         0.290710
 H         5.138141         0.672022        -0.110007
 H         3.309894        -1.280019         2.517265
 H         2.789584         0.210887         3.326748
 H         2.332748         1.475786         1.232687
