19
Iteration:  4898charge 0 multiplicity 1
 C        -0.145151         0.086702        -0.114469
 C         1.325052        -0.129158         0.079970
 C         2.360870        -1.324229        -0.067327
 C         3.172648        -0.009149         0.073947
 C         4.661423        -0.015620         0.508184
 O         4.505129        -0.003340         1.997629
 C         3.113709        -0.249786         2.455619
 C         2.314848         0.324748         1.323509
 O         2.319393         0.793959        -0.846698
 H        -0.271049         1.277986        -0.293046
 H        -0.565820        -0.557227        -0.972271
 H        -0.643440        -0.381504         0.809729
 H         2.274143        -2.055393         0.705956
 H         2.313974        -1.829870        -1.025188
 H         5.392819        -0.862901         0.189761
 H         5.126672         1.039907         0.244652
 H         2.916252        -1.303105         2.606196
 H         2.931606         0.285993         3.391896
 H         2.118639         1.383333         1.370578
