19
Iteration:   535
 C        -0.148888         0.050540        -0.184367
 C         1.339344        -0.079663         0.158310
 C         2.174443        -1.324635         0.030912
 C         3.126607        -0.157728         0.061723
 C         4.678196        -0.112724         0.603144
 O         4.604128         0.244693         2.011548
 C         3.164700        -0.132552         2.428343
 C         2.297689         0.478855         1.259336
 O         2.342359         0.529999        -0.948179
 H        -0.761355        -0.640473         0.393802
 H        -0.520713         1.095908         0.009064
 H        -0.282874        -0.213807        -1.273396
 H         2.157914        -1.919380         0.957502
 H         2.104501        -1.905547        -0.909511
 H         5.123353        -1.069351         0.676753
 H         5.228691         0.595791         0.140055
 H         3.123317        -1.179103         2.650200
 H         3.063738         0.439379         3.352303
 H         2.462563         1.586844         1.254010
