19
Iteration:  4121
 C        -0.225034        -0.000750        -0.060340
 C         1.451446        -0.118344         0.155285
 C         2.327957        -1.384895         0.004894
 C         3.211719        -0.031332         0.064133
 C         4.620837         0.043482         0.522409
 O         4.457410        -0.293644         1.962538
 C         3.036470         0.038938         2.474667
 C         2.321973         0.584531         1.226213
 O         2.427074         0.671291        -0.923862
 H        -0.566384        -0.996757        -0.053782
 H        -0.754497         0.595749         0.663714
 H        -0.306866         0.465306        -1.101743
 H         2.356355        -2.094506         0.865812
 H         2.306475        -1.862536        -0.923595
 H         5.246279        -0.593291        -0.020579
 H         5.090063         1.025216         0.435982
 H         2.513646        -0.800734         3.088443
 H         3.080847         0.812878         3.225267
 H         2.367563         1.661294         1.107430
