19
Iteration:  4094charge 0 multiplicity 1
 C        -0.097703        -0.003427        -0.059769
 C         1.453447        -0.056974         0.000169
 C         2.231912        -1.326026         0.055501
 C         3.212014        -0.074989         0.121919
 C         4.624440         0.005838         0.610312
 O         4.497867        -0.226973         2.015320
 C         3.122980        -0.026515         2.468665
 C         2.361306         0.576189         1.185651
 O         2.237785         0.642178        -0.966865
 H        -0.340815        -1.066939        -0.456409
 H        -0.686838         0.311157         0.856261
 H        -0.265113         0.644873        -0.884927
 H         2.073731        -2.000205         0.902654
 H         2.281921        -1.687571        -1.026626
 H         5.420124        -0.619240         0.083411
 H         5.053417         1.011649         0.416604
 H         2.764290        -0.912883         2.935982
 H         2.986413         0.697061         3.278571
 H         2.466148         1.685781         1.083534
