19
Iteration:   395charge 0 multiplicity 1
 C        -0.124546        -0.118508        -0.041015
 C         1.385099        -0.014821         0.085658
 C         2.318143        -1.213428         0.167786
 C         3.252594        -0.014463         0.119789
 C         4.695564        -0.053036         0.444223
 O         4.452361        -0.241725         1.940987
 C         2.962061         0.064664         2.407724
 C         2.294116         0.725599         1.219501
 O         2.408321         0.488337        -0.933589
 H        -0.396666        -0.506217         0.862598
 H        -0.744172         0.798894        -0.348576
 H        -0.365730        -0.967133        -0.757005
 H         2.421554        -1.855617         1.006940
 H         2.241132        -1.838794        -0.730565
 H         5.121755        -0.967089         0.169891
 H         5.165964         0.965356         0.282842
 H         2.551722        -0.879479         2.707295
 H         3.027885         0.799759         3.326232
 H         2.239069         1.830881         1.068293
