19
Iteration:  4188charge 0 multiplicity 1
 C        -0.069760         0.045706        -0.058524
 C         1.397576        -0.064189         0.084481
 C         2.326830        -1.372250        -0.030192
 C         3.177190        -0.009626         0.080628
 C         4.600474         0.131190         0.606557
 O         4.464394        -0.285530         1.993347
 C         3.069243        -0.067579         2.385045
 C         2.329874         0.574316         1.240715
 O         2.349026         0.591948        -0.909110
 H        -0.599482        -0.163599         0.851574
 H        -0.378710         0.995483        -0.569183
 H        -0.470427        -0.724268        -0.747221
 H         2.230355        -2.117391         0.758610
 H         2.068545        -1.785473        -1.026461
 H         5.420727        -0.409484         0.179765
 H         4.972167         1.141075         0.476861
 H         2.733604        -1.044230         2.869462
 H         3.089277         0.498884         3.355271
 H         2.369948         1.689905         1.351058
