19
Iteration:  4716
 C        -0.022788         0.029007        -0.049147
 C         1.436936        -0.094120         0.129868
 C         2.386482        -1.292997         0.004754
 C         3.206122         0.070550         0.041136
 C         4.650601         0.195269         0.547685
 O         4.378240        -0.401821         1.987018
 C         3.108658        -0.135866         2.453117
 C         2.321917         0.467862         1.244895
 O         2.204621         0.709935        -0.949088
 H        -0.274045         0.979215        -0.394580
 H        -0.496988        -0.556564        -0.852794
 H        -0.545722        -0.390450         0.846539
 H         2.444114        -2.060862         0.905796
 H         2.421241        -1.818115        -0.969457
 H         5.227475        -0.510261         0.059161
 H         5.098076         1.174597         0.523495
 H         2.796991        -1.115360         2.982684
 H         3.000239         0.741371         3.070313
 H         2.367917         1.584942         1.305803
