19
Iteration:  2141
 C        -0.099331         0.204757        -0.224376
 C         1.400091        -0.153094         0.129832
 C         2.211097        -1.437368         0.141009
 C         3.136122        -0.207117         0.162315
 C         4.631029         0.065453         0.493856
 O         4.546049         0.107305         1.972428
 C         3.158633         0.001231         2.495304
 C         2.347553         0.484036         1.233042
 O         2.286520         0.380170        -0.954199
 H        -0.778352        -0.480237         0.279020
 H        -0.340338         1.206862         0.002856
 H        -0.113051         0.329941        -1.247354
 H         2.154565        -1.986447         1.100549
 H         1.937886        -1.991607        -0.753733
 H         5.302041        -0.826176         0.273015
 H         5.006924         0.964079         0.140197
 H         2.993738        -1.020946         2.821494
 H         3.194470         0.752569         3.372663
 H         2.325076         1.591447         1.101802
