19
Iteration:   921
 C         0.047706        -0.036948         0.044892
 C         1.476662        -0.057475         0.099953
 C         2.282159        -1.316673         0.087084
 C         3.239800        -0.064685         0.035836
 C         4.615510         0.086880         0.603574
 O         4.370686        -0.324066         1.973987
 C         2.981687         0.108344         2.378941
 C         2.348328         0.643555         1.141082
 O         2.283616         0.514918        -0.985783
 H        -0.236989        -0.593418         0.971203
 H        -0.369710         0.990047         0.201155
 H        -0.467521        -0.459401        -0.767512
 H         2.496712        -1.983337         0.907162
 H         2.047508        -1.871329        -0.848893
 H         5.475277        -0.468809         0.164223
 H         4.962423         1.121654         0.502619
 H         2.539467        -0.776943         2.684862
 H         3.157563         0.731709         3.272018
 H         2.445403         1.730514         0.952382
