19
Iteration:  1084charge 0 multiplicity 1
 C        -0.079861         0.246185        -0.012550
 C         1.412259        -0.119160         0.030119
 C         2.214779        -1.465895        -0.076658
 C         3.204207        -0.242288         0.125887
 C         4.735016        -0.041878         0.653939
 O         4.454859         0.215924         2.027325
 C         3.112448        -0.062101         2.509780
 C         2.334192         0.440865         1.163529
 O         2.243009         0.486562        -1.023481
 H        -0.678228        -0.617845         0.551133
 H        -0.248362         1.204766         0.546847
 H        -0.520524         0.377714        -1.017808
 H         2.225303        -2.125523         0.779231
 H         2.230183        -1.919998        -1.075552
 H         5.270974        -1.039538         0.541335
 H         5.289319         0.692018         0.044761
 H         3.128689        -1.186578         2.986146
 H         2.932280         0.634370         3.395726
 H         2.429753         1.516210         1.007181
