19
Iteration:  4070charge 0 multiplicity 1
 C        -0.105584         0.109392        -0.104039
 C         1.408165        -0.110760         0.194955
 C         2.349364        -1.289399         0.048707
 C         3.192505        -0.054130         0.041686
 C         4.619826         0.006932         0.536850
 O         4.459806        -0.169488         1.975227
 C         3.036012        -0.023359         2.417601
 C         2.348044         0.576485         1.233883
 O         2.303555         0.494910        -0.896259
 H        -0.350817        -0.710904        -0.780042
 H        -0.677416         0.011839         0.860517
 H        -0.255320         1.043211        -0.584158
 H         2.623540        -2.059211         0.816090
 H         2.229699        -1.593094        -1.031665
 H         5.350938        -0.812202         0.222052
 H         5.175233         0.939040         0.263817
 H         2.721469        -0.992524         2.603148
 H         2.842390         0.547310         3.380659
 H         2.369481         1.672780         1.106916
