19
Iteration:  1538
 C        -0.011213         0.080391        -0.024393
 C         1.448934        -0.100466         0.132793
 C         2.297375        -1.366744         0.063226
 C         3.193585        -0.150501         0.050243
 C         4.508167        -0.048884         0.538416
 O         4.428376        -0.065483         2.018419
 C         3.056211         0.047960         2.410994
 C         2.335721         0.533468         1.114878
 O         2.390827         0.548880        -0.939804
 H        -0.331396         0.117977         1.064961
 H        -0.430305         1.102743        -0.415556
 H        -0.403639        -0.881885        -0.465749
 H         2.375189        -2.036977         0.969383
 H         2.333525        -1.896951        -0.928138
 H         5.188840        -0.846874         0.369874
 H         4.773221         0.998600         0.167501
 H         2.719179        -0.864852         2.877252
 H         2.775035         0.810668         3.178593
 H         2.376124         1.656981         1.039629
