19
Iteration:   562
 C        -0.061021         0.113822        -0.142915
 C         1.385468        -0.162764         0.051507
 C         2.245823        -1.439382        -0.114794
 C         3.094079        -0.245152         0.163527
 C         4.594492        -0.174149         0.542589
 O         4.501258         0.285163         1.917998
 C         3.137448         0.002309         2.509055
 C         2.349169         0.427369         1.250825
 O         2.331570         0.622368        -0.775828
 H        -0.625790        -0.483710         0.649223
 H        -0.220879         1.196689        -0.031093
 H        -0.507682        -0.250157        -1.054538
 H         2.121616        -2.199278         0.666081
 H         2.405785        -1.911621        -1.077372
 H         5.048130        -1.189757         0.682994
 H         5.244415         0.634397        -0.060487
 H         3.053480        -1.025691         2.976263
 H         3.093203         0.799583         3.285864
 H         2.540078         1.494897         1.126121
