19
Iteration:  3865
 C         0.031763         0.122580        -0.058279
 C         1.443982        -0.098295         0.174961
 C         2.410157        -1.328278         0.054914
 C         3.196135        -0.033376         0.067927
 C         4.552410         0.068018         0.535342
 O         4.413963        -0.206171         1.963063
 C         2.978029        -0.092140         2.450826
 C         2.374009         0.585506         1.183305
 O         2.266165         0.512767        -0.928548
 H        -0.599678        -0.727412        -0.378357
 H        -0.710761         0.276837         0.766421
 H        -0.086890         0.941993        -0.743770
 H         2.512499        -1.979786         0.881364
 H         2.332052        -1.904141        -0.851781
 H         5.200110        -0.672556         0.107456
 H         4.993308         1.018741         0.177151
 H         2.580014        -0.998539         2.809524
 H         2.951668         0.600969         3.236126
 H         2.531801         1.683456         1.089853
