19
Iteration:  3398charge 0 multiplicity 1
 C        -0.087685         0.116150        -0.177197
 C         1.362904        -0.081054         0.065541
 C         2.148375        -1.373219         0.186239
 C         3.222485        -0.139033         0.208184
 C         4.629673        -0.078934         0.486225
 O         4.561306         0.034830         1.970603
 C         3.117785         0.050556         2.448924
 C         2.393776         0.575036         1.231585
 O         2.290186         0.395020        -0.951581
 H        -0.744863        -0.755917         0.067483
 H        -0.557438         1.121471         0.256549
 H        -0.141116         0.143852        -1.283495
 H         2.248340        -1.996453         1.059334
 H         2.184367        -1.926152        -0.716503
 H         5.216609        -0.929255         0.078815
 H         5.108134         0.813341         0.110556
 H         2.703710        -0.866111         2.840631
 H         3.055452         0.884327         3.142919
 H         2.284161         1.635197         1.300969
