19
Iteration:  4308
 C        -0.078641         0.110425        -0.103406
 C         1.401870        -0.039173         0.053279
 C         2.300257        -1.317235        -0.140678
 C         3.185469        -0.070322         0.098702
 C         4.615624         0.027469         0.572112
 O         4.496566        -0.030196         2.026087
 C         3.115893        -0.221771         2.433758
 C         2.297060         0.378306         1.307030
 O         2.305277         0.677394        -0.852513
 H        -0.487043         1.173180        -0.269238
 H        -0.545203        -0.592018        -0.912322
 H        -0.495173        -0.351339         0.902903
 H         2.195713        -2.037084         0.646313
 H         2.254712        -1.798181        -1.180528
 H         5.317821        -0.772614         0.352028
 H         5.202415         0.944359         0.269410
 H         2.845165        -1.279346         2.763837
 H         2.878171         0.313849         3.379997
 H         2.380472         1.478146         1.176835
