19
Iteration:  1998
 C        -0.106060         0.043884         0.014257
 C         1.364276        -0.098384         0.145604
 C         2.394609        -1.302769         0.201161
 C         3.193042         0.025694         0.129642
 C         4.630911         0.088067         0.518479
 O         4.387482        -0.295375         1.886028
 C         3.035737         0.063953         2.407988
 C         2.326116         0.633023         1.172346
 O         2.417797         0.401834        -1.026979
 H        -0.570122         0.181628         1.014970
 H        -0.517286         0.951110        -0.637636
 H        -0.623316        -0.820442        -0.495922
 H         2.363684        -2.134711         0.951893
 H         2.476360        -1.779732        -0.799918
 H         5.486257        -0.693129         0.239279
 H         5.011394         1.125679         0.325313
 H         2.566342        -0.791738         2.871778
 H         2.936346         0.898672         3.129436
 H         2.349747         1.744887         1.129413
