19
Iteration:  3120
 C        -0.031707         0.110646        -0.081594
 C         1.402516        -0.109195         0.039142
 C         2.175267        -1.353558         0.177683
 C         3.217040        -0.088735         0.181395
 C         4.622260         0.036033         0.523793
 O         4.455788        -0.154621         1.930432
 C         3.111087         0.038958         2.390822
 C         2.306659         0.584899         1.244278
 O         2.350674         0.461861        -0.974666
 H        -0.342668         0.275588         1.013977
 H        -0.370744         0.988873        -0.573412
 H        -0.410635        -0.892533        -0.604535
 H         2.157203        -2.007648         1.021639
 H         2.263513        -1.870447        -0.745036
 H         5.213686        -0.737137         0.045847
 H         5.115097         1.007052         0.260475
 H         2.846243        -1.005304         2.691710
 H         2.993822         0.810288         3.142534
 H         2.418251         1.719801         1.298093
