19
Iteration:   999
 C        -0.140676        -0.024810        -0.189540
 C         1.366802        -0.082423         0.160081
 C         2.271136        -1.363778         0.023313
 C         3.208888        -0.104702         0.034946
 C         4.617585        -0.008761         0.587278
 O         4.515196        -0.224767         1.988423
 C         3.103777         0.094407         2.448411
 C         2.402293         0.663014         1.265100
 O         2.296405         0.577741        -0.894529
 H        -0.791846        -0.141100         0.781226
 H        -0.405159         0.891632        -0.570605
 H        -0.381823        -0.839203        -0.890560
 H         2.171041        -1.932777         0.909671
 H         2.302498        -1.832711        -0.938787
 H         5.259696        -0.796410         0.255194
 H         4.888712         0.992276         0.262370
 H         2.851111        -0.774454         2.882905
 H         3.236450         0.837571         3.246032
 H         2.353547         1.707097         1.160226
