19
Iteration:   861charge 0 multiplicity 1
 C        -0.049053         0.096031        -0.164905
 C         1.430225        -0.114607         0.079657
 C         2.184851        -1.429984        -0.030052
 C         3.179115        -0.137543         0.157718
 C         4.567910        -0.136064         0.570588
 O         4.523150         0.241871         1.967625
 C         3.166578        -0.080616         2.467427
 C         2.373007         0.449677         1.278838
 O         2.250421         0.587450        -0.880499
 H        -0.715136        -0.630883         0.381648
 H        -0.322977         1.193221         0.028990
 H        -0.045730        -0.156170        -1.285358
 H         2.322433        -1.991737         0.910149
 H         2.078584        -1.909503        -0.987111
 H         4.910119        -1.139844         0.403964
 H         4.974797         0.751502         0.072819
 H         3.067673        -1.255435         2.594631
 H         3.046406         0.413209         3.424570
 H         2.499696         1.544793         1.307103
