19
Iteration:   497
 C        -0.069924         0.083606        -0.121764
 C         1.350944        -0.074997         0.202171
 C         2.327312        -1.349160         0.115465
 C         3.214052        -0.170637         0.130634
 C         4.670734         0.039733         0.518796
 O         4.464221        -0.042763         1.924872
 C         3.004241        -0.034868         2.418009
 C         2.294983         0.543724         1.195905
 O         2.349489         0.511813        -0.932216
 H        -0.583846        -0.637016         0.608710
 H        -0.335694         1.132159         0.058888
 H        -0.331872        -0.160425        -1.137247
 H         2.465017        -1.992508         1.010946
 H         2.269955        -2.050935        -0.711440
 H         5.359084        -0.816795         0.133615
 H         5.175034         1.034817         0.064109
 H         2.623122        -1.032271         2.812707
 H         2.993845         0.772171         3.206324
 H         2.262510         1.635372         1.113393
