19
Iteration:  4157charge 0 multiplicity 1
 C        -0.065534         0.066926        -0.072607
 C         1.422227        -0.083046         0.089042
 C         2.416396        -1.376593         0.077634
 C         3.246108         0.046598         0.024383
 C         4.672697         0.106230         0.555695
 O         4.418293        -0.330408         1.980014
 C         2.991323        -0.049929         2.437064
 C         2.332127         0.563537         1.246884
 O         2.223802         0.610736        -0.946036
 H        -0.630608        -0.739498         0.385928
 H        -0.513341         1.051881         0.190692
 H        -0.303232        -0.091678        -1.073545
 H         2.457682        -2.000545         0.985062
 H         2.222662        -1.983385        -0.877507
 H         5.372964        -0.720202         0.225179
 H         5.151550         1.105311         0.608155
 H         2.774352        -1.017852         2.820786
 H         3.188106         0.789069         3.230997
 H         2.243830         1.671109         1.213292
