19
Iteration:   757
 C        -0.024903        -0.002623         0.043509
 C         1.393811        -0.027313         0.103761
 C         2.335372        -1.294941         0.060201
 C         3.177263        -0.044831         0.093801
 C         4.610751        -0.020721         0.559929
 O         4.405124        -0.170627         1.996730
 C         3.022498         0.049829         2.390775
 C         2.372033         0.594436         1.144571
 O         2.314959         0.476975        -1.010520
 H        -0.239283        -0.546130         0.984601
 H        -0.424303         1.047601        -0.009670
 H        -0.367926        -0.603355        -0.756982
 H         2.279415        -1.946783         0.958060
 H         2.466460        -1.864381        -0.928246
 H         5.379718        -0.645009         0.170749
 H         5.035010         0.961549         0.418379
 H         2.580796        -0.927304         2.706234
 H         3.071396         0.683598         3.377589
 H         2.476188         1.728376         1.088391
