19
Iteration:  1054
 C        -0.040531         0.221798        -0.090588
 C         1.414884        -0.154419         0.197031
 C         2.288857        -1.417745         0.063621
 C         3.147455        -0.205225         0.137749
 C         4.587224        -0.028800         0.502615
 O         4.436732         0.156274         2.009916
 C         3.066609        -0.115353         2.376802
 C         2.313241         0.536524         1.170321
 O         2.382472         0.504962        -0.905669
 H        -0.714884        -0.572572         0.497084
 H        -0.142207         1.164253         0.296432
 H        -0.229468         0.202948        -1.201535
 H         2.392645        -2.164925         0.787075
 H         2.223633        -1.987332        -0.815062
 H         5.073471        -0.963288         0.284254
 H         5.040067         0.705641        -0.163827
 H         3.061270        -1.147313         2.535782
 H         2.932796         0.413167         3.327195
 H         2.346623         1.573987         1.052705
