19
Iteration:  2552
 C        -0.036803         0.035631         0.052729
 C         1.435295        -0.056112         0.047950
 C         2.301041        -1.335465         0.117240
 C         3.232448        -0.114362         0.083039
 C         4.652722         0.030730         0.601512
 O         4.355082        -0.308664         2.010285
 C         3.034726         0.188646         2.424770
 C         2.431699         0.602236         1.064445
 O         2.293114         0.490354        -1.038715
 H        -0.335704        -0.594102         0.842617
 H        -0.378071         0.984823         0.545622
 H        -0.598164        -0.223504        -0.761271
 H         2.317112        -1.952431         1.059598
 H         2.205366        -1.991221        -0.803101
 H         5.363550        -0.780521         0.231420
 H         4.907975         1.022209         0.355426
 H         2.371862        -0.495912         3.013657
 H         3.040949         1.076063         3.017647
 H         2.545844         1.660053         0.797794
