19
Iteration:  1024
 C        -0.109565         0.051885        -0.200893
 C         1.308172        -0.060542         0.113693
 C         2.184830        -1.306520         0.082360
 C         3.222289        -0.125961         0.127356
 C         4.648435         0.015486         0.524982
 O         4.549195        -0.037615         2.035102
 C         3.142320        -0.059716         2.448688
 C         2.344060         0.520989         1.224698
 O         2.330369         0.520316        -0.940009
 H        -0.647517        -0.411203         0.614635
 H        -0.422788         1.081028        -0.194292
 H        -0.361650        -0.467752        -1.158313
 H         2.168198        -1.881062         1.117733
 H         2.073908        -1.888831        -0.875826
 H         5.144548        -0.916346         0.239305
 H         5.063071         0.959398         0.104514
 H         3.062088        -1.103488         2.833198
 H         3.083902         0.671435         3.244921
 H         2.305343         1.645912         1.256493
