19
Iteration:   344
 C        -0.091852         0.259701        -0.134395
 C         1.359036        -0.203269         0.117198
 C         2.289920        -1.510384         0.004404
 C         3.225903        -0.237685         0.187520
 C         4.618645         0.098978         0.543074
 O         4.493055         0.072112         1.933121
 C         3.089995         0.045827         2.455463
 C         2.328695         0.437160         1.246315
 O         2.290288         0.429001        -0.889507
 H        -0.834817        -0.262101         0.499937
 H        -0.129213         1.357483         0.282128
 H        -0.335125         0.195537        -1.242253
 H         2.237356        -2.348109         0.795875
 H         2.507400        -1.747380        -1.045655
 H         5.377540        -0.697215         0.174954
 H         4.942306         1.068974         0.150967
 H         2.888186        -0.900205         2.985143
 H         3.035699         0.882949         3.134728
 H         2.356223         1.578237         1.087620
