19
Iteration:   904charge 0 multiplicity 1
 C        -0.121286        -0.014435         0.038142
 C         1.382792        -0.091301         0.165742
 C         2.347349        -1.349811         0.050215
 C         3.201653        -0.082251         0.042870
 C         4.614278         0.008951         0.526613
 O         4.423033        -0.172458         2.035652
 C         3.038426         0.031740         2.402309
 C         2.431481         0.582599         1.136351
 O         2.358580         0.596518        -1.002354
 H        -0.662559        -0.705270         0.734397
 H        -0.454687         0.992879         0.193093
 H        -0.303669        -0.322088        -1.035328
 H         2.202915        -1.912786         1.006062
 H         2.400999        -1.860148        -0.911695
 H         5.222390        -0.828324         0.265983
 H         5.026007         1.032908         0.337124
 H         2.515051        -0.880943         2.903699
 H         2.924545         0.849516         3.123006
 H         2.316036         1.659922         1.054077
