19
Iteration:  1281
 C        -0.149493        -0.061400        -0.048185
 C         1.408206        -0.021561         0.103417
 C         2.245249        -1.265890         0.105515
 C         3.210401        -0.155231         0.072127
 C         4.619065        -0.101240         0.496539
 O         4.470448        -0.097447         2.026846
 C         3.081104         0.049977         2.429402
 C         2.320879         0.647029         1.146085
 O         2.404017         0.558589        -0.944177
 H        -0.529971        -0.854240         0.619912
 H        -0.542266         0.951437         0.277975
 H        -0.389784        -0.385331        -1.080259
 H         2.141259        -1.887358         0.974968
 H         2.303609        -1.931902        -0.768684
 H         5.313044        -0.960766         0.331143
 H         5.046257         0.850341         0.240389
 H         2.815237        -0.854483         2.792901
 H         3.011016         0.746647         3.260114
 H         2.442764         1.688924         0.921582
