19
Iteration:  3954charge 0 multiplicity 1
 C        -0.168101         0.080438        -0.118366
 C         1.341878        -0.157576         0.170189
 C         2.308604        -1.309323         0.116459
 C         3.203840         0.012029         0.125047
 C         4.628800        -0.137969         0.496873
 O         4.513543        -0.030471         2.030444
 C         3.078204        -0.045941         2.360362
 C         2.315078         0.604557         1.245638
 O         2.359663         0.530917        -0.973663
 H        -0.307921         0.433371        -1.238155
 H        -0.732879        -0.875781         0.038685
 H        -0.455183         0.881624         0.518207
 H         2.338843        -1.991032         0.926108
 H         2.416773        -1.820805        -0.883374
 H         5.176485        -1.004229         0.256819
 H         5.277474         0.605926         0.021674
 H         2.879237        -1.203996         2.662004
 H         3.027047         0.556343         3.235436
 H         2.334319         1.699775         1.355617
