19
Iteration:  2555charge 0 multiplicity 1
 C        -0.061621         0.044865         0.048545
 C         1.426045        -0.073699         0.068955
 C         2.317540        -1.313496         0.115477
 C         3.223093        -0.130442         0.075779
 C         4.655367         0.031069         0.603718
 O         4.358907        -0.322664         1.988429
 C         3.027498         0.205921         2.410907
 C         2.433193         0.614566         1.082824
 O         2.331956         0.468426        -1.016000
 H        -0.300567        -0.652576         0.930752
 H        -0.286256         1.039034         0.437053
 H        -0.674697        -0.224746        -0.832511
 H         2.299634        -1.879751         1.025029
 H         2.200108        -1.882682        -0.823185
 H         5.286716        -0.701502         0.227525
 H         4.779838         1.084035         0.311937
 H         2.369705        -0.547681         2.985333
 H         3.032098         1.065654         3.028951
 H         2.414503         1.648517         0.821878
