19
Iteration:  4247charge 0 multiplicity 1
 C        -0.103219         0.081738        -0.081384
 C         1.371795        -0.108899         0.034551
 C         2.370465        -1.279645        -0.060745
 C         3.216403        -0.043479         0.128718
 C         4.744618         0.005694         0.573601
 O         4.496494        -0.073756         2.028767
 C         3.035613        -0.212516         2.432094
 C         2.341352         0.486188         1.255043
 O         2.185744         0.647603        -0.902623
 H        -0.506426         0.745112         0.698773
 H        -0.167638         0.592321        -1.002037
 H        -0.634350        -0.857745        -0.146484
 H         2.147055        -1.965272         0.812088
 H         2.301761        -1.841886        -1.022827
 H         5.296176        -0.934276         0.252704
 H         5.154703         0.981927         0.336067
 H         2.769491        -1.216432         2.485037
 H         2.975118         0.411971         3.391310
 H         2.447465         1.596140         1.349634
