19
Iteration:  4107charge 0 multiplicity 1
 C        -0.129632        -0.028622        -0.113865
 C         1.311506        -0.031884         0.068043
 C         2.269829        -1.258928         0.021012
 C         3.218540        -0.084830         0.065934
 C         4.685416         0.047096         0.598260
 O         4.456476        -0.258956         1.992437
 C         3.106757         0.037883         2.416112
 C         2.376261         0.467503         1.194657
 O         2.354058         0.649040        -0.894218
 H        -0.611078        -1.069723        -0.119140
 H        -0.491746         0.391316         0.840158
 H        -0.659087         0.561070        -0.925088
 H         2.284610        -1.803493         0.964331
 H         2.237437        -2.017435        -0.765586
 H         5.347931        -0.772346         0.390634
 H         5.000674         1.079399         0.452302
 H         2.772148        -0.945964         2.839795
 H         3.237132         0.828198         3.086398
 H         2.277418         1.566493         1.211776
