19
Iteration:  3379charge 0 multiplicity 1
 C        -0.051061         0.063099        -0.159311
 C         1.374484        -0.120017         0.231446
 C         2.190187        -1.406541         0.130025
 C         3.113240        -0.249403        -0.000516
 C         4.559553        -0.113072         0.555776
 O         4.514030         0.064408         1.972971
 C         3.181282         0.139268         2.418569
 C         2.352835         0.556798         1.219298
 O         2.378339         0.554948        -0.936278
 H        -0.720060        -0.542881         0.535131
 H        -0.440508         1.088975         0.024413
 H        -0.107189        -0.086171        -1.276301
 H         2.097196        -1.929107         1.125185
 H         2.104799        -2.056938        -0.720825
 H         5.176070        -1.070532         0.344862
 H         5.142117         0.750322         0.257258
 H         2.608398        -1.032813         2.675272
 H         3.100237         0.733660         3.356224
 H         2.543342         1.637375         0.901557
