19
Iteration:  1267charge 0 multiplicity 1
 C         0.031557        -0.050198        -0.008735
 C         1.452239         0.031614         0.137551
 C         2.233313        -1.328097         0.114520
 C         3.190866        -0.090111         0.104956
 C         4.657323        -0.038509         0.566295
 O         4.420346        -0.147761         1.967193
 C         2.946150         0.079392         2.393988
 C         2.459492         0.645443         1.141263
 O         2.284592         0.485652        -0.981274
 H        -0.215329        -0.897338         0.552750
 H        -0.758951         0.823549         0.313659
 H        -0.262754        -0.328876        -1.045982
 H         2.266134        -2.062729         0.945078
 H         2.056745        -1.790392        -0.883184
 H         5.178595        -0.886413         0.167478
 H         5.156626         0.896194         0.225090
 H         2.429666        -0.869241         2.678941
 H         3.105276         0.784493         3.233880
 H         2.539544         1.769481         1.190973
