19
Iteration:  1377
 C        -0.082397         0.156774        -0.031459
 C         1.363650        -0.054964         0.093633
 C         2.264359        -1.427230         0.071467
 C         3.129676        -0.138218         0.117352
 C         4.566244        -0.016861         0.570937
 O         4.485360         0.182810         1.975966
 C         3.128536        -0.146554         2.462260
 C         2.284588         0.510850         1.227260
 O         2.483803         0.428282        -1.043053
 H        -0.495120        -0.027204         0.877585
 H        -0.314816         1.305300        -0.132702
 H        -0.588712        -0.502063        -0.758766
 H         1.959913        -2.246815         0.689195
 H         2.220090        -1.859584        -0.929910
 H         5.170111        -0.879070         0.354896
 H         5.008559         0.942390         0.219914
 H         2.826371        -1.312473         2.590282
 H         3.004689         0.427691         3.393077
 H         2.279181         1.612068         1.182315
