19
Iteration:  2922
 C        -0.121825         0.043500        -0.221236
 C         1.360749        -0.041736         0.178370
 C         2.205708        -1.288530         0.128248
 C         3.199300        -0.138049         0.134833
 C         4.682825         0.003083         0.534138
 O         4.529936        -0.238306         1.961613
 C         3.139646         0.143412         2.430856
 C         2.361573         0.612436         1.225068
 O         2.274719         0.453487        -0.928282
 H        -0.634210        -0.509254         0.572994
 H        -0.466999         1.088957        -0.402410
 H        -0.314151        -0.645655        -1.041894
 H         2.227347        -1.910342         0.999786
 H         2.077324        -1.882710        -0.749785
 H         5.333072        -0.830767         0.181711
 H         5.041424         1.091436         0.394624
 H         2.707449        -0.582100         3.022491
 H         3.365504         0.879830         3.185855
 H         2.279515         1.679264         0.934164
