19
Iteration:  2321
 C        -0.037181         0.086064        -0.067822
 C         1.393825        -0.135109         0.241773
 C         2.272594        -1.328894         0.134741
 C         3.192948        -0.060964         0.137760
 C         4.659385         0.016117         0.544691
 O         4.412819        -0.199002         1.969949
 C         3.095359         0.203418         2.422482
 C         2.317929         0.590725         1.142509
 O         2.376911         0.364111        -1.036291
 H        -0.669900        -0.703936         0.270565
 H        -0.617150         1.034248         0.228045
 H        -0.272357         0.029878        -1.178679
 H         2.207795        -1.913109         1.128217
 H         2.277481        -2.008401        -0.753004
 H         5.078902        -0.908276         0.031110
 H         4.992688         0.931000         0.116090
 H         2.677273        -0.608879         3.110928
 H         3.142379         1.146412         3.035535
 H         2.239110         1.730762         0.952813
