19
Iteration:  1167charge 0 multiplicity 1
 C        -0.117245        -0.003616        -0.214797
 C         1.413137        -0.098664         0.073834
 C         2.255693        -1.285024         0.166664
 C         3.204616        -0.064321         0.146576
 C         4.710920        -0.024601         0.548415
 O         4.492083        -0.165324         1.991878
 C         3.114647         0.058867         2.419885
 C         2.421387         0.580695         1.223295
 O         2.195491         0.533404        -0.935253
 H        -0.684622        -0.030387         0.740179
 H        -0.498405         1.052984        -0.635906
 H        -0.597854        -0.763962        -0.827830
 H         2.270803        -2.011310         1.042652
 H         2.245489        -1.878555        -0.766593
 H         5.408665        -0.809092         0.201088
 H         5.092349         0.990136         0.336116
 H         2.746505        -0.957977         2.667700
 H         2.986063         0.679019         3.295499
 H         2.418300         1.715789         1.227839
