19
Iteration:  1966charge 0 multiplicity 1
 C        -0.072861         0.083592        -0.227779
 C         1.388357        -0.123779         0.184453
 C         2.288873        -1.417771         0.205359
 C         3.147124        -0.085141         0.095264
 C         4.633977         0.008887         0.498168
 O         4.510542        -0.133986         2.010184
 C         3.166477         0.067003         2.414968
 C         2.354906         0.558159         1.153425
 O         2.196365         0.541269        -0.905221
 H        -0.701601        -0.139733         0.654648
 H        -0.080652         1.195296        -0.496337
 H        -0.159699        -0.704172        -1.000341
 H         2.330784        -2.024302         1.152704
 H         2.233805        -1.925292        -0.788343
 H         5.495829        -0.751572         0.356442
 H         4.956521         0.999937         0.059986
 H         2.742431        -0.856593         2.708352
 H         2.969115         0.763259         3.260164
 H         2.441432         1.670103         1.082980
