19
Iteration:  3805
 C        -0.071698        -0.012099        -0.014422
 C         1.453526        -0.098460         0.101187
 C         2.347399        -1.318201        -0.005451
 C         3.176594        -0.100202         0.121201
 C         4.617652        -0.005864         0.538131
 O         4.391427        -0.302301         1.953747
 C         3.117736         0.082374         2.490042
 C         2.303298         0.634955         1.190377
 O         2.324632         0.640952        -0.935163
 H        -0.200166        -0.813054        -0.753272
 H        -0.426687        -0.114407         0.984386
 H        -0.531194         0.928598        -0.485210
 H         2.309591        -2.019628         0.844038
 H         2.297360        -1.744341        -1.072430
 H         5.338990        -0.802238         0.292703
 H         4.861811         0.987055         0.330988
 H         2.530052        -0.862195         2.996253
 H         3.189434         0.988878         3.215812
 H         2.264817         1.676740         0.849783
