19
Iteration:   394charge 0 multiplicity 1
 C        -0.127234        -0.115704        -0.052291
 C         1.379417        -0.015827         0.084467
 C         2.319293        -1.221326         0.176131
 C         3.246693        -0.019650         0.123698
 C         4.692002        -0.053315         0.453904
 O         4.455708        -0.235411         1.938719
 C         2.973723         0.068038         2.408868
 C         2.295581         0.719185         1.209955
 O         2.406990         0.493398        -0.934588
 H        -0.410596        -0.506143         0.899972
 H        -0.710233         0.780951        -0.314025
 H        -0.368448        -0.942063        -0.762717
 H         2.396766        -1.859813         1.031457
 H         2.210532        -1.803428        -0.775731
 H         5.164070        -0.952664         0.165286
 H         5.171658         0.971114         0.279739
 H         2.540145        -0.899780         2.683937
 H         3.014440         0.783185         3.335615
 H         2.264558         1.802696         1.083572
