19
Iteration:  3281
 C        -0.054576         0.123030        -0.096294
 C         1.367137        -0.118599         0.076987
 C         2.192914        -1.411144         0.091079
 C         3.155428        -0.152101         0.136326
 C         4.540635         0.050055         0.558029
 O         4.563448        -0.056294         2.031818
 C         3.082214         0.072664         2.391132
 C         2.375950         0.535373         1.220482
 O         2.357232         0.434179        -0.978678
 H        -0.555284         0.129705         0.900520
 H        -0.151784         1.153241        -0.298697
 H        -0.613735        -0.550286        -0.714430
 H         2.240057        -2.057734         1.078553
 H         2.244210        -1.883656        -0.891827
 H         5.227130        -0.730642         0.052866
 H         4.924161         0.985939         0.007694
 H         2.784767        -0.849941         2.706594
 H         3.241606         0.743902         3.281975
 H         2.438615         1.653831         1.047563
