19
Iteration:  3941charge 0 multiplicity 1
 C        -0.051333         0.054347        -0.087954
 C         1.355602        -0.077478         0.258623
 C         2.210140        -1.333845         0.094529
 C         3.150587        -0.098080         0.059273
 C         4.649827        -0.056090         0.551398
 O         4.532013        -0.030812         2.015375
 C         3.071872        -0.012568         2.379061
 C         2.378827         0.508958         1.150928
 O         2.351327         0.585296        -0.946973
 H         0.040976         0.138497        -1.228339
 H        -0.717082        -0.869677         0.086575
 H        -0.632884         0.871011         0.276565
 H         2.256404        -2.021540         0.873474
 H         2.139977        -1.826701        -0.886434
 H         5.066202        -1.008121         0.238614
 H         5.166373         0.842736         0.317353
 H         2.608756        -1.153769         2.562765
 H         2.884550         0.548581         3.287741
 H         2.298227         1.628947         1.065155
