19
Iteration:  2169
 C        -0.057624         0.168776        -0.013352
 C         1.400964        -0.194234         0.100464
 C         2.295212        -1.447215         0.079543
 C         3.179604        -0.222103         0.149843
 C         4.596466        -0.109047         0.580885
 O         4.457353         0.198581         1.911937
 C         3.054003         0.015006         2.430929
 C         2.319362         0.514539         1.162879
 O         2.389270         0.509023        -0.942476
 H        -0.603913        -0.224113         0.861717
 H        -0.207647         1.354249        -0.022379
 H        -0.499996        -0.070937        -1.087979
 H         2.219970        -2.054730         0.989936
 H         2.180820        -2.010503        -0.894346
 H         5.065978        -1.102306         0.363580
 H         5.233204         0.698439        -0.026913
 H         2.839342        -1.083269         2.651998
 H         2.920709         0.702610         3.251869
 H         2.278140         1.602474         1.059684
