19
Iteration:  4060charge 0 multiplicity 1
 C        -0.071725         0.105203        -0.052200
 C         1.373771        -0.123769         0.178654
 C         2.366271        -1.372351         0.110172
 C         3.250828        -0.026775         0.105367
 C         4.643876        -0.003048         0.539200
 O         4.406443        -0.108636         1.955063
 C         3.057795        -0.089233         2.381619
 C         2.324851         0.543288         1.149655
 O         2.319073         0.564044        -0.918700
 H        -0.474586        -0.333065        -0.989559
 H        -0.894506        -0.017262         0.719889
 H        -0.183969         1.129385        -0.315828
 H         2.289765        -2.124912         0.933619
 H         2.417895        -1.926163        -0.900979
 H         5.170242        -0.907229         0.092030
 H         5.037866         1.005294         0.382801
 H         2.675337        -1.002146         2.669074
 H         3.149200         0.675364         3.174689
 H         2.282832         1.650544         1.257549
