19
Iteration:  2286
 C        -0.057469         0.150716        -0.218871
 C         1.376970        -0.146498         0.085152
 C         2.234381        -1.381904         0.268961
 C         3.215554        -0.202036         0.195551
 C         4.577343         0.220351         0.525930
 O         4.473765        -0.258912         1.942645
 C         3.118606         0.146630         2.389930
 C         2.408734         0.605916         1.153986
 O         2.243095         0.384674        -0.942164
 H        -0.608087        -0.374902         0.560253
 H        -0.255904         1.177126        -0.146565
 H        -0.257464        -0.314769        -1.205978
 H         2.062074        -1.735609         1.307873
 H         2.338747        -2.224597        -0.484840
 H         5.480525        -0.476123         0.159405
 H         4.930365         1.197633         0.512197
 H         2.859302        -0.831293         2.882388
 H         3.303685         0.938654         3.240865
 H         2.606785         1.738167         0.908201
