19
Iteration:   143
 C        -0.130105        -0.015553        -0.076521
 C         1.405199        -0.122904         0.114356
 C         2.314278        -1.367730        -0.065806
 C         3.214275        -0.144374         0.064985
 C         4.609829        -0.084499         0.575784
 O         4.476626        -0.137571         2.074653
 C         3.113492         0.208454         2.515337
 C         2.413850         0.575198         1.155655
 O         2.220040         0.560697        -0.949640
 H        -0.559493        -0.610568         0.716420
 H        -0.315119         1.041248        -0.018649
 H        -0.400047        -0.366973        -1.064904
 H         2.468949        -2.067539         0.685956
 H         2.215715        -1.757898        -1.099038
 H         5.237469        -0.859211         0.326602
 H         4.932738         0.929139         0.399808
 H         2.738334        -0.613908         3.066381
 H         3.227677         1.145437         3.126568
 H         2.439570         1.640464         1.010296
