19
Iteration:  4413charge 0 multiplicity 1
 C        -0.092768         0.000421        -0.091254
 C         1.388496        -0.110530         0.082143
 C         2.393401        -1.264233        -0.067868
 C         3.181963        -0.036254         0.081762
 C         4.650787         0.133661         0.569024
 O         4.447533        -0.358835         1.961781
 C         3.051010        -0.088615         2.427333
 C         2.383790         0.551910         1.219257
 O         2.245293         0.692981        -0.815179
 H        -0.319873         1.009541        -0.378911
 H        -0.473989        -0.620224        -0.889618
 H        -0.607279        -0.215320         0.878727
 H         2.650256        -1.867992         0.913698
 H         2.352266        -1.767667        -1.024573
 H         5.397850        -0.581408         0.207586
 H         5.060059         1.078609         0.715109
 H         2.461450        -1.007082         2.555895
 H         3.056112         0.581491         3.316052
 H         2.280895         1.641001         1.268172
