19
Iteration:  4915
 C        -0.220812         0.031325        -0.109885
 C         1.398997        -0.032171         0.130974
 C         2.322468        -1.269786        -0.166448
 C         3.214954        -0.076218         0.140390
 C         4.638280         0.076711         0.565040
 O         4.576507        -0.062840         1.989918
 C         3.050731        -0.282467         2.423440
 C         2.337091         0.446326         1.263131
 O         2.311958         0.684130        -0.809145
 H        -0.663259         0.885710        -0.500970
 H        -0.529822        -0.741726        -0.783770
 H        -0.874310         0.048774         0.713030
 H         2.466085        -2.059081         0.623636
 H         2.369993        -1.618468        -1.264040
 H         5.171871        -0.770644         0.213741
 H         5.158336         0.916781         0.257779
 H         2.887876        -1.359514         2.694006
 H         2.946797         0.276172         3.423211
 H         2.380316         1.602113         1.330387
