19
Iteration:  4043
 C        -0.027818         0.165063        -0.037971
 C         1.419235        -0.170986         0.023571
 C         2.293650        -1.391768         0.117025
 C         3.152369        -0.093105         0.049104
 C         4.624349         0.035374         0.532032
 O         4.512505        -0.097616         1.981195
 C         3.026511        -0.029538         2.441391
 C         2.278734         0.490008         1.252210
 O         2.328434         0.578241        -0.964313
 H        -0.470058        -0.012696        -1.070978
 H        -0.374060        -0.507078         0.726843
 H        -0.338171         1.245884         0.206772
 H         2.387593        -1.757630         1.114644
 H         2.361643        -2.047793        -0.725422
 H         5.221722        -0.811669         0.276353
 H         5.106613         0.981230         0.192670
 H         2.783576        -1.188942         2.590747
 H         2.793524         0.605000         3.297727
 H         2.294169         1.580060         1.141479
