19
Iteration:   215charge 0 multiplicity 1
 C        -0.078327        -0.006200        -0.096710
 C         1.401757        -0.110976         0.194470
 C         2.266377        -1.323653         0.094355
 C         3.203151        -0.051379         0.042248
 C         4.687287         0.132061         0.621923
 O         4.440320        -0.315170         1.985989
 C         3.122259         0.140978         2.404092
 C         2.353671         0.634628         1.153677
 O         2.255088         0.447698        -0.991993
 H        -0.572130        -0.307050         0.887492
 H        -0.191696         1.014173        -0.376156
 H        -0.364701        -0.609439        -0.929347
 H         2.403915        -2.181635         0.844700
 H         2.080520        -1.810936        -0.870509
 H         5.454299        -0.596513         0.259548
 H         4.873236         1.223715         0.534733
 H         2.592909        -0.702639         2.978277
 H         3.184533         0.967701         3.112686
 H         2.361871         1.723976         1.235425
