19
Iteration:   443charge 0 multiplicity 1
 C        -0.104976        -0.045926         0.035896
 C         1.399273        -0.060349         0.123678
 C         2.446756        -1.360125         0.040753
 C         3.265793        -0.052916         0.037619
 C         4.720475         0.109431         0.629483
 O         4.341852        -0.458857         1.959852
 C         3.015745         0.265396         2.416769
 C         2.407939         0.626496         1.121841
 O         2.215670         0.542757        -0.977827
 H        -0.686254        -0.335310         0.987451
 H        -0.376701         0.931184        -0.387088
 H        -0.374427        -0.798886        -0.691420
 H         2.313421        -2.126755         0.867395
 H         2.500746        -1.959958        -0.883119
 H         5.422721        -0.684859         0.250477
 H         4.883913         1.130215         0.782941
 H         2.405099        -0.367248         3.102662
 H         3.233903         1.190737         2.909056
 H         2.367447         1.721127         1.024060
