19
Iteration:  3911
 C        -0.070755         0.099775        -0.065443
 C         1.371989        -0.031001         0.001875
 C         2.233158        -1.338415         0.018815
 C         3.154550        -0.199382         0.161256
 C         4.592883         0.023706         0.503934
 O         4.512712        -0.082851         2.000253
 C         3.095235         0.013229         2.508652
 C         2.394634         0.462667         1.227069
 O         2.355772         0.542536        -0.916874
 H        -0.525644        -0.375039        -1.004941
 H        -0.581681        -0.497676         0.697740
 H        -0.402352         1.099350        -0.051076
 H         2.076602        -2.103123         0.759551
 H         2.404191        -1.805123        -1.007165
 H         5.342624        -0.620392         0.095540
 H         4.964397         1.059672         0.266975
 H         2.702630        -0.882599         2.807905
 H         2.941684         0.710444         3.286656
 H         2.351319         1.529021         1.096793
