19
Iteration:  4165charge 0 multiplicity 1
 C        -0.084675         0.059366        -0.081977
 C         1.350109        -0.075282         0.073560
 C         2.406322        -1.339331         0.112209
 C         3.217882        -0.011912         0.069350
 C         4.687336         0.119657         0.596770
 O         4.447312        -0.343350         1.966887
 C         3.023116        -0.025485         2.451413
 C         2.377602         0.510766         1.133849
 O         2.224557         0.654479        -0.944253
 H        -0.546623        -0.623308         0.609906
 H        -0.375460         1.128634         0.031928
 H        -0.433910        -0.254841        -1.131151
 H         2.464590        -1.949658         1.017334
 H         2.489966        -1.928749        -0.784579
 H         5.453448        -0.499422         0.255404
 H         5.109089         1.077936         0.328425
 H         2.590872        -1.050244         2.862807
 H         2.910389         0.526018         3.377722
 H         2.277644         1.577245         1.356121
