19
Iteration:   953charge 0 multiplicity 1
 C        -0.129020        -0.025750         0.032101
 C         1.380999        -0.142287         0.140789
 C         2.442748        -1.240196         0.155210
 C         3.227099         0.068486         0.037276
 C         4.638911         0.105909         0.622070
 O         4.326158        -0.454387         1.936982
 C         3.078632         0.090716         2.375604
 C         2.329493         0.612512         1.133890
 O         2.360488         0.499963        -1.039247
 H        -0.446061        -0.064716         1.091223
 H        -0.298318         1.129306        -0.211454
 H        -0.704836        -0.664865        -0.588024
 H         2.823048        -1.692531         0.988203
 H         2.245592        -1.762103        -0.786857
 H         5.356618        -0.558439         0.100880
 H         4.888390         1.138538         0.765936
 H         2.471549        -0.621703         2.860831
 H         3.297532         0.882547         3.132321
 H         2.177149         1.672885         0.864163
