19
Iteration:   105charge 0 multiplicity 1
 C        -0.112585        -0.058292        -0.119734
 C         1.361296        -0.040545         0.077374
 C         2.238438        -1.313539         0.018164
 C         3.205902        -0.095624         0.098684
 C         4.611916        -0.196324         0.571323
 O         4.495818         0.130072         2.003577
 C         3.115719        -0.015454         2.518062
 C         2.376280         0.540672         1.187917
 O         2.356070         0.575010        -0.955325
 H        -0.622834        -0.581848         0.849793
 H        -0.656868         0.935601        -0.128444
 H        -0.518931        -0.561004        -1.033505
 H         2.228763        -2.127575         0.815650
 H         2.093782        -1.824123        -0.945196
 H         5.196455        -1.157911         0.292304
 H         5.239424         0.634118         0.132759
 H         2.886366        -0.990803         3.044671
 H         3.012167         0.729632         3.310717
 H         2.377711         1.661807         1.218862
