19
Iteration:  3184charge 0 multiplicity 1
 C        -0.062709         0.033576         0.033143
 C         1.433430        -0.103335         0.042982
 C         2.279175        -1.386451         0.147082
 C         3.160007        -0.147412         0.141179
 C         4.666504        -0.005050         0.513373
 O         4.477491        -0.286805         2.044759
 C         2.998361         0.216500         2.387265
 C         2.384022         0.662609         1.119979
 O         2.294418         0.539279        -1.044548
 H        -0.497288        -0.813465         0.608504
 H        -0.312884         0.920744         0.539117
 H        -0.480548        -0.075979        -0.976504
 H         2.325059        -1.898075         1.115912
 H         2.287994        -1.824608        -0.811086
 H         5.316596        -0.743224         0.209886
 H         5.068707         0.974708         0.210552
 H         2.568653        -0.791002         2.835870
 H         3.135607         0.998260         3.191568
 H         2.356986         1.798123         1.000601
