19
Iteration:  1617
 C        -0.078727         0.148246        -0.182897
 C         1.433789        -0.171343         0.180446
 C         2.215166        -1.420454         0.035655
 C         3.178854        -0.199604         0.158532
 C         4.597148        -0.114481         0.523791
 O         4.529458         0.172050         1.908460
 C         3.099307         0.042640         2.385953
 C         2.217193         0.447655         1.329328
 O         2.404286         0.514715        -0.848259
 H        -0.890034        -0.403106         0.180683
 H        -0.336743         1.197198         0.299994
 H        -0.312829         0.099084        -1.318671
 H         2.318518        -2.193449         0.787627
 H         2.171822        -1.769590        -0.995457
 H         5.141650        -0.979694         0.316522
 H         5.211293         0.700314         0.018784
 H         2.923971        -0.919085         2.740914
 H         2.997964         0.787798         3.108760
 H         2.310680         1.540553         1.287167
