19
Iteration:  2449charge 0 multiplicity 1
 C        -0.063748         0.257427        -0.248392
 C         1.319892        -0.123360         0.118738
 C         2.216773        -1.410012         0.118417
 C         3.130929        -0.302236         0.148667
 C         4.635911         0.047409         0.557192
 O         4.556806         0.102213         1.982842
 C         3.174158        -0.053025         2.477037
 C         2.400436         0.564330         1.261048
 O         2.243330         0.344780        -0.907219
 H        -0.806699         0.311416         0.608960
 H        -0.015020         1.221456        -0.671726
 H        -0.642955        -0.344308        -1.065343
 H         2.273916        -2.210468         0.850487
 H         2.115084        -1.834322        -0.880781
 H         5.436846        -0.516688         0.043033
 H         4.876797         1.069465         0.168331
 H         2.888759        -1.035986         2.589143
 H         3.118275         0.574980         3.455573
 H         2.605368         1.676794         1.061270
