19
Iteration:  1764
 C        -0.005830        -0.032922        -0.039012
 C         1.409961        -0.133895         0.166422
 C         2.329022        -1.288607         0.128133
 C         3.201227         0.004204         0.086735
 C         4.601904         0.068730         0.573137
 O         4.377318        -0.375094         1.915912
 C         3.076610         0.184619         2.413658
 C         2.224647         0.645380         1.199998
 O         2.391124         0.499519        -1.008133
 H        -0.449531         0.256194         1.037042
 H        -0.201271         0.700014        -0.782650
 H        -0.446879        -0.961146        -0.427868
 H         2.359448        -2.002116         0.966779
 H         2.269037        -1.965912        -0.732569
 H         5.225918        -0.713269        -0.053361
 H         5.039264         1.024335         0.289399
 H         2.739475        -0.592477         3.004338
 H         3.198449         1.003240         3.160616
 H         2.343216         1.719205         1.213163
