19
Iteration:   261charge 0 multiplicity 1
 C        -0.105137        -0.008245        -0.079941
 C         1.409618        -0.098473         0.073628
 C         2.230296        -1.293203        -0.032305
 C         3.194881        -0.063911         0.111290
 C         4.623190        -0.211506         0.583240
 O         4.509862         0.113223         1.970941
 C         3.139574         0.066369         2.506047
 C         2.285696         0.485483         1.221611
 O         2.340523         0.563499        -0.958017
 H        -0.537346        -0.492018         0.911605
 H        -0.485837         0.915136        -0.271115
 H        -0.412825        -0.692218        -0.834159
 H         2.175829        -1.958198         0.798420
 H         2.327570        -1.909420        -0.936808
 H         4.832013        -1.243729         0.403051
 H         5.338571         0.558572         0.249146
 H         2.871636        -0.954458         2.884218
 H         3.103334         0.750181         3.337115
 H         2.271551         1.531422         1.198215
