19
Iteration:  3732
 C        -0.045067         0.072799        -0.108105
 C         1.441517        -0.030968         0.207824
 C         2.176512        -1.424775         0.129935
 C         3.220825        -0.168262         0.083427
 C         4.670632         0.111591         0.505739
 O         4.451912        -0.164051         1.927257
 C         3.047511        -0.018523         2.408822
 C         2.302652         0.593748         1.191934
 O         2.388664         0.519292        -0.910200
 H        -0.050020         0.599995        -1.070053
 H        -0.686580        -0.900487        -0.104434
 H        -0.624813         0.726814         0.736277
 H         2.139968        -2.002950         1.052967
 H         2.170657        -1.976679        -0.749148
 H         5.348553        -0.613113        -0.061407
 H         4.852939         1.277026         0.280585
 H         2.673465        -0.909003         2.780077
 H         3.025599         0.603575         3.264548
 H         2.355944         1.715668         1.115631
