19
Iteration:  2048charge 0 multiplicity 1
 C        -0.047762        -0.046979         0.116736
 C         1.438128        -0.045582         0.063330
 C         2.364172        -1.346777        -0.020552
 C         3.305402        -0.035866         0.090040
 C         4.699734        -0.045461         0.615797
 O         4.334481        -0.282061         2.044386
 C         3.036709         0.208241         2.406727
 C         2.386618         0.649174         1.111962
 O         2.212215         0.499233        -1.034225
 H        -0.331875        -0.274918         1.138606
 H        -0.541210         0.861979        -0.214139
 H        -0.532079        -0.717889        -0.621721
 H         2.529028        -1.951488         0.862927
 H         2.164538        -2.015210        -0.860798
 H         5.330388        -0.846510         0.363017
 H         5.093361         0.962199         0.319714
 H         2.240145        -0.521580         2.762474
 H         3.132904         1.083697         3.031558
 H         2.395251         1.735372         0.996294
