19
Iteration:  1361charge 0 multiplicity 1
 C        -0.150283         0.244781        -0.105292
 C         1.378071        -0.174199         0.142567
 C         2.115051        -1.356094         0.044602
 C         3.189149        -0.166627         0.106542
 C         4.630633         0.035882         0.546768
 O         4.496137         0.195527         2.048272
 C         3.137040        -0.134102         2.393701
 C         2.312539         0.392027         1.265563
 O         2.444863         0.426497        -1.027745
 H        -0.662774        -0.041640         0.943848
 H        -0.196516         1.201020        -0.527658
 H        -0.548911        -0.456973        -0.836882
 H         2.353938        -1.799650         1.053164
 H         2.186646        -1.974093        -0.861238
 H         5.354572        -0.807735         0.334176
 H         5.132124         0.945197         0.078548
 H         3.164711        -1.145416         2.555559
 H         2.946541         0.370355         3.348087
 H         2.292900         1.497655         1.401716
