19
Iteration:  3328charge 0 multiplicity 1
 C        -0.088126         0.128732         0.021811
 C         1.352287        -0.171760         0.050011
 C         2.280010        -1.414156         0.098352
 C         3.183123        -0.102336         0.078169
 C         4.597909        -0.126927         0.606145
 O         4.505224         0.068396         2.063080
 C         3.119592        -0.003964         2.424813
 C         2.396026         0.595461         1.118218
 O         2.299987         0.510612        -1.060817
 H        -0.471332         0.300378         1.007267
 H        -0.246538         1.087697        -0.428916
 H        -0.702995        -0.644386        -0.525471
 H         2.206365        -1.959743         1.080398
 H         2.207310        -2.026170        -0.878585
 H         5.222341        -0.954294         0.449399
 H         5.243835         0.757015         0.137938
 H         2.862971        -1.130295         2.624086
 H         2.815761         0.574499         3.332835
 H         2.316679         1.711583         0.943748
