19
Iteration:  1379
 C        -0.093932         0.154838        -0.023687
 C         1.396051        -0.057686         0.086087
 C         2.274467        -1.429725         0.075713
 C         3.141188        -0.150203         0.114521
 C         4.548147        -0.016584         0.535788
 O         4.476426         0.178739         1.993855
 C         3.119318        -0.137004         2.458991
 C         2.292162         0.527707         1.219511
 O         2.476668         0.435826        -1.022070
 H        -0.535002        -0.117878         0.960714
 H        -0.237319         1.255744        -0.153979
 H        -0.592489        -0.486973        -0.785889
 H         1.933177        -2.251376         0.667882
 H         2.206173        -1.813837        -0.946470
 H         5.164024        -0.913892         0.317033
 H         5.070805         0.875284         0.256981
 H         2.792820        -1.253551         2.557510
 H         2.982828         0.424508         3.379045
 H         2.269304         1.597184         1.146624
