19
Iteration:  1153charge 0 multiplicity 1
 C        -0.074555         0.004343        -0.148937
 C         1.353816        -0.040840         0.071106
 C         2.310723        -1.341642         0.148562
 C         3.154251        -0.011819         0.099199
 C         4.566583        -0.055296         0.539821
 O         4.547967        -0.071698         2.004342
 C         3.079925        -0.061936         2.422434
 C         2.350947         0.658113         1.230032
 O         2.308566         0.527949        -0.961049
 H        -0.588150        -0.274561         0.926350
 H        -0.307484         0.986035        -0.567332
 H        -0.261449        -0.826801        -0.910528
 H         2.185909        -1.864482         1.111467
 H         2.344683        -2.045057        -0.731934
 H         4.896515        -1.090079         0.181455
 H         5.331422         0.671770         0.208371
 H         2.632660        -1.147618         2.772217
 H         3.205950         0.579426         3.333667
 H         2.380939         1.746342         1.188357
