19
Iteration:  2308
 C        -0.121979         0.113854        -0.160509
 C         1.366088        -0.094508         0.158872
 C         2.259707        -1.391942         0.254566
 C         3.176327        -0.144633         0.017324
 C         4.590665         0.115259         0.572641
 O         4.507159        -0.246415         1.971715
 C         3.109447         0.194222         2.427392
 C         2.349459         0.610632         1.196923
 O         2.335511         0.356014        -1.029469
 H        -0.640064        -0.661227         0.361817
 H        -0.328329         1.083815         0.169645
 H        -0.206396         0.057426        -1.257191
 H         2.395992        -1.976204         1.187670
 H         2.114635        -2.013911        -0.670747
 H         5.490441        -0.553478         0.258936
 H         4.944226         1.113526         0.576527
 H         2.725826        -0.683574         3.034186
 H         3.298692         1.109373         3.119775
 H         2.388743         1.759399         1.084327
