19
Iteration:  1069charge 0 multiplicity 1
 C        -0.071791         0.243970        -0.020381
 C         1.338535        -0.184182         0.132095
 C         2.259439        -1.438129        -0.008047
 C         3.230478        -0.156653         0.025465
 C         4.618715        -0.075060         0.584569
 O         4.495646         0.224344         2.033561
 C         3.077670        -0.047377         2.386003
 C         2.352555         0.386454         1.214552
 O         2.335876         0.458535        -0.959673
 H        -0.801006        -0.346316         0.360425
 H        -0.242942         1.258464         0.472151
 H        -0.294760         0.378373        -1.073154
 H         2.211392        -2.110919         0.969815
 H         2.222652        -1.830657        -1.076084
 H         5.235876        -1.003427         0.532983
 H         5.166982         0.844616         0.357342
 H         2.794058        -1.100672         2.527984
 H         2.871759         0.532194         3.276057
 H         2.292413         1.543408         1.250415
