19
Iteration:  1417charge 0 multiplicity 1
 C        -0.111964         0.026821        -0.009893
 C         1.444902        -0.110779         0.090830
 C         2.293199        -1.380070         0.050674
 C         3.285713        -0.144996         0.001577
 C         4.691511        -0.084491         0.622706
 O         4.448850        -0.053040         2.098965
 C         3.065979         0.096554         2.412198
 C         2.403897         0.542099         1.146329
 O         2.171300         0.584401        -1.033697
 H        -0.823932        -0.572414         0.716161
 H        -0.506044         1.093642         0.098997
 H        -0.322806        -0.184213        -1.070031
 H         2.345048        -2.022255         0.979452
 H         2.215341        -1.806753        -0.964858
 H         5.053572        -1.099979         0.344097
 H         5.316439         0.812851         0.299517
 H         2.849841        -0.752443         2.952129
 H         3.095539         0.860586         3.208531
 H         2.399462         1.665889         1.168802
