19
Iteration:  2209
 C        -0.093589        -0.004820         0.084229
 C         1.445230         0.005337         0.001977
 C         2.182348        -1.365816        -0.020760
 C         3.256486        -0.197030         0.139842
 C         4.640798        -0.201248         0.683462
 O         4.487144         0.160522         2.074578
 C         3.026366         0.052716         2.377336
 C         2.396538         0.552628         1.107196
 O         2.252089         0.535396        -1.080507
 H        -0.349311         0.039197         1.167278
 H        -0.371654         0.829649        -0.406334
 H        -0.557205        -0.835642        -0.392734
 H         2.254088        -2.017295         0.878884
 H         2.139268        -1.965916        -0.972355
 H         5.149808        -1.196301         0.710621
 H         5.261676         0.529941         0.285169
 H         2.937897        -0.982055         2.592067
 H         3.079734         0.588006         3.355846
 H         2.798235         1.625035         0.943114
