19
Iteration:   502
 C        -0.059662         0.066679        -0.131339
 C         1.375689        -0.050253         0.177120
 C         2.318080        -1.341689         0.126037
 C         3.204093        -0.152656         0.086078
 C         4.669036         0.001518         0.499032
 O         4.457197         0.006355         1.933340
 C         3.020858        -0.061560         2.380763
 C         2.296906         0.573907         1.246957
 O         2.334120         0.469489        -0.892424
 H        -0.607853        -0.593106         0.563381
 H        -0.422570         1.088023         0.100547
 H        -0.218844        -0.136814        -1.217657
 H         2.329885        -1.936127         1.047663
 H         2.228092        -1.936670        -0.816264
 H         5.405788        -0.745865         0.306272
 H         5.125439         0.854451         0.172201
 H         2.703092        -1.043042         2.700733
 H         3.011856         0.570647         3.260028
 H         2.308589         1.672566         1.165613
