19
Iteration:  3614charge 0 multiplicity 1
 C        -0.106329         0.172252        -0.086675
 C         1.382091        -0.080905         0.034880
 C         2.232336        -1.425676         0.108152
 C         3.182202        -0.170999         0.095799
 C         4.616967        -0.095591         0.539554
 O         4.585044         0.097329         2.003297
 C         3.052357         0.020834         2.479899
 C         2.354408         0.500528         1.171249
 O         2.298719         0.479767        -0.965138
 H        -0.415331         0.940703         0.562597
 H        -0.596506         0.412564        -1.066266
 H        -0.655509        -0.667423         0.176033
 H         2.529780        -2.042494         1.040149
 H         2.179796        -2.040395        -0.774773
 H         5.231624        -0.908045         0.309098
 H         5.074687         0.802772         0.291531
 H         2.911413        -1.065951         2.847001
 H         3.011893         0.526310         3.449367
 H         2.446479         1.605158         0.989518
