19
Iteration:  1038
 C        -0.061350         0.116531        -0.144314
 C         1.452223        -0.051655         0.096579
 C         2.237534        -1.391228         0.116770
 C         3.155687        -0.131678         0.105100
 C         4.596437        -0.050557         0.521490
 O         4.488414         0.088614         1.913159
 C         3.074372        -0.073051         2.437646
 C         2.346016         0.498340         1.297068
 O         2.340131         0.496916        -0.907946
 H        -0.622868        -0.517624         0.475217
 H        -0.459863         1.257379        -0.023257
 H        -0.306091        -0.153123        -1.158890
 H         2.041571        -2.126692         0.997608
 H         2.343825        -1.949033        -0.882799
 H         5.370259        -0.838470         0.261766
 H         5.099421         0.916803         0.231596
 H         2.618369        -1.189610         2.660107
 H         3.038065         0.422796         3.437224
 H         2.436783         1.651493         1.306227
