19
Iteration:  2542charge 0 multiplicity 1
 C        -0.025672         0.026970         0.116845
 C         1.463226        -0.029895         0.021900
 C         2.263809        -1.402406         0.103601
 C         3.274054        -0.127893         0.035768
 C         4.661045        -0.018656         0.605755
 O         4.363027        -0.257723         2.076324
 C         3.029790         0.197807         2.409283
 C         2.406651         0.630568         1.062876
 O         2.200845         0.542190        -1.096507
 H        -0.359548        -0.821838         0.692961
 H        -0.475741         1.005335         0.393895
 H        -0.342534        -0.149730        -0.856314
 H         2.277172        -1.913061         1.092418
 H         2.321335        -2.137218        -0.754988
 H         5.407515        -0.813096         0.369335
 H         5.261405         0.812649         0.629325
 H         2.622851        -0.700962         3.011202
 H         3.246054         1.001536         3.019475
 H         2.561252         1.681867         0.996095
