19
Iteration:  4406charge 0 multiplicity 1
 C        -0.146682        -0.006542        -0.112989
 C         1.339507        -0.104469         0.150128
 C         2.333045        -1.278316        -0.051467
 C         3.278951        -0.031600         0.112512
 C         4.696689         0.136363         0.579662
 O         4.420529        -0.342366         1.953723
 C         3.025240        -0.104295         2.396579
 C         2.405397         0.566307         1.233875
 O         2.268380         0.697144        -0.825098
 H        -0.216580         0.982649        -0.613812
 H        -0.738439        -0.657510        -0.822114
 H        -0.588087        -0.268575         0.871922
 H         2.582438        -2.147151         0.606506
 H         2.561610        -1.754397        -1.070854
 H         5.457335        -0.504732         0.132852
 H         5.009939         1.316552         0.486421
 H         2.600695        -1.084808         2.675739
 H         3.045442         0.475858         3.272749
 H         2.497887         1.671740         1.260619
