19
Iteration:  2362charge 0 multiplicity 1
 C        -0.111774        -0.029436         0.059051
 C         1.383192        -0.024698         0.059409
 C         2.253610        -1.287166         0.105559
 C         3.249134        -0.133166         0.077485
 C         4.670857        -0.236915         0.604515
 O         4.458210        -0.013059         2.083411
 C         3.032658         0.157523         2.375061
 C         2.456067         0.582100         1.045140
 O         2.248569         0.542730        -1.063189
 H        -0.465291        -0.833586         0.699512
 H        -0.576755         0.841108         0.373323
 H        -0.245242        -0.299899        -0.990994
 H         2.180402        -1.905572         0.997564
 H         2.263893        -1.966930        -0.781584
 H         5.252647        -1.202352         0.577219
 H         5.413336         0.492358         0.415333
 H         2.608788        -0.772229         2.816567
 H         3.022872         0.964453         3.210725
 H         2.454909         1.714111         0.989557
