19
Iteration:  2827
 C         0.002853         0.087392         0.031695
 C         1.410101        -0.051859         0.143319
 C         2.235123        -1.346287         0.052651
 C         3.199011        -0.100791         0.102626
 C         4.607808        -0.006778         0.557955
 O         4.416257        -0.174219         1.994709
 C         3.063535         0.089065         2.453177
 C         2.328819         0.554795         1.121501
 O         2.376848         0.501508        -1.082519
 H        -0.510815        -0.370555         0.958029
 H        -0.513563         0.998186        -0.105111
 H        -0.463169        -0.693858        -0.708368
 H         2.287510        -1.956502         1.072977
 H         2.274987        -1.999672        -0.845827
 H         5.317296        -0.860667         0.245247
 H         4.965592         0.977966         0.333582
 H         2.815956        -0.790865         3.155533
 H         3.096079         0.921300         3.212677
 H         2.300084         1.667631         1.074347
