19
Iteration:  3299
 C        -0.032438         0.167127         0.014236
 C         1.396616        -0.077098         0.125244
 C         2.262200        -1.435649         0.052718
 C         3.232510        -0.195088         0.120412
 C         4.629879        -0.022045         0.506545
 O         4.410070         0.023780         1.926298
 C         3.072083         0.013411         2.453703
 C         2.359194         0.602723         1.170517
 O         2.352102         0.421491        -0.926460
 H        -0.689294         0.170081         0.913771
 H        -0.239242         1.191164        -0.603085
 H        -0.420749        -0.724017        -0.487316
 H         2.185949        -2.116228         0.871976
 H         2.093532        -1.927326        -0.903452
 H         5.503538        -0.717346         0.387925
 H         5.020277         0.917769         0.202922
 H         2.650892        -1.065093         2.647104
 H         2.749945         0.694502         3.219768
 H         2.338707         1.648090         0.985133
