19
Iteration:   102
 C        -0.117738        -0.042619        -0.106067
 C         1.378671        -0.053993         0.108473
 C         2.251253        -1.327598         0.041483
 C         3.180065        -0.087225         0.082048
 C         4.580256        -0.177956         0.551118
 O         4.490120         0.144516         2.006193
 C         3.109392        -0.041833         2.512003
 C         2.390344         0.544993         1.200016
 O         2.376501         0.566340        -0.969101
 H        -0.535881        -0.512023         0.704281
 H        -0.697234         0.962200        -0.167599
 H        -0.501063        -0.562828        -1.071485
 H         2.256165        -2.142353         0.790916
 H         2.175938        -1.830477        -0.985100
 H         5.065538        -1.198191         0.354945
 H         5.195715         0.608054         0.142967
 H         2.892396        -1.024120         2.953026
 H         3.028048         0.716953         3.342314
 H         2.417172         1.693904         1.226208
