19
Iteration:  4381charge 0 multiplicity 1
 C        -0.041437         0.046581        -0.070455
 C         1.375482        -0.036095         0.109591
 C         2.253526        -1.258379        -0.108498
 C         3.180327        -0.011690         0.059893
 C         4.572584         0.149165         0.597798
 O         4.503918        -0.261736         2.006325
 C         3.092759        -0.183510         2.422870
 C         2.304881         0.472079         1.296924
 O         2.357243         0.650918        -0.919357
 H        -0.267272         0.764260        -0.793283
 H        -0.399950        -0.870178        -0.521621
 H        -0.575852        -0.033706         0.899121
 H         2.513706        -1.985352         0.802826
 H         2.275667        -1.838418        -1.028756
 H         5.295856        -0.510608         0.075636
 H         4.978804         1.221470         0.590018
 H         2.729936        -1.188871         2.683888
 H         3.026762         0.349651         3.356275
 H         2.212392         1.566916         1.399292
