19
Iteration:  2768
 C        -0.145715         0.108295        -0.265881
 C         1.404819        -0.071491         0.201025
 C         2.159194        -1.374303         0.125418
 C         3.190811        -0.103999         0.109823
 C         4.657127        -0.076412         0.491024
 O         4.532207        -0.020891         1.955439
 C         3.156500         0.020919         2.537841
 C         2.432796         0.573413         1.259303
 O         2.265694         0.446883        -0.974991
 H        -0.575410        -0.808639         0.032768
 H        -0.692297         0.914080         0.411166
 H        -0.220261         0.296119        -1.297317
 H         2.141548        -1.877595         1.027172
 H         2.028104        -1.938512        -0.810950
 H         5.310510        -0.871905         0.287415
 H         5.065956         0.899032         0.206864
 H         2.953581        -1.040033         3.099872
 H         3.216373         0.890231         3.236034
 H         2.167033         1.640297         1.168660
