19
Iteration:  3139charge 0 multiplicity 1
 C        -0.161749         0.116258         0.011374
 C         1.422435        -0.124140         0.133604
 C         2.353598        -1.415256         0.109756
 C         3.202596        -0.108719         0.062911
 C         4.607878        -0.013961         0.505134
 O         4.511549        -0.190003         1.996058
 C         3.005529         0.088686         2.440603
 C         2.306463         0.585374         1.117094
 O         2.378666         0.508879        -0.983858
 H        -0.623535         0.134266         0.986453
 H        -0.179324         1.186666        -0.251025
 H        -0.608542        -0.527686        -0.691530
 H         2.346496        -1.777361         1.148513
 H         2.283177        -2.006199        -0.782135
 H         5.331870        -0.620639         0.036815
 H         4.931800         1.000018         0.370974
 H         2.400230        -0.819952         2.813754
 H         3.069729         0.915055         3.225080
 H         2.393324         1.701702         0.931165
