19
Iteration:  1620charge 0 multiplicity 1
 C        -0.094149         0.142768        -0.193725
 C         1.423913        -0.182475         0.187946
 C         2.217871        -1.422323         0.012196
 C         3.152154        -0.211837         0.160689
 C         4.585769        -0.076866         0.545302
 O         4.548807         0.154594         1.918653
 C         3.120491         0.047084         2.390293
 C         2.227160         0.467008         1.336974
 O         2.410859         0.514869        -0.864436
 H        -0.980249        -0.476535         0.176317
 H        -0.335956         1.174790         0.204938
 H        -0.338818         0.257204        -1.282773
 H         2.300133        -2.168951         0.788793
 H         2.156986        -1.815686        -0.983543
 H         5.170921        -1.045380         0.354011
 H         5.115759         0.680527        -0.017495
 H         3.018765        -0.932885         2.838905
 H         3.014354         0.771078         3.225898
 H         2.354707         1.524698         1.110617
