19
Iteration:  3229
 C        -0.008579         0.034947        -0.122949
 C         1.378675        -0.087042         0.245900
 C         2.251632        -1.357026         0.181093
 C         3.188200        -0.042686         0.064352
 C         4.579280        -0.087500         0.481158
 O         4.536731        -0.203528         1.996768
 C         3.058481         0.162345         2.441708
 C         2.334757         0.698316         1.148590
 O         2.301233         0.459348        -0.952451
 H        -0.632312        -0.848187         0.151124
 H        -0.469800         0.904512         0.179168
 H        -0.034782        -0.177632        -1.262882
 H         2.043035        -2.012793         1.069674
 H         2.319647        -1.820814        -0.795033
 H         5.085203        -0.777426        -0.090804
 H         5.016507         0.917058         0.308707
 H         2.656838        -0.938863         2.830513
 H         3.351211         0.822568         3.307777
 H         2.294536         1.817240         0.872488
