19
Iteration:  1950
 C        -0.123427         0.056377        -0.228293
 C         1.331009        -0.103881         0.178957
 C         2.215161        -1.353685         0.066711
 C         3.206308        -0.213964         0.119107
 C         4.630214        -0.003715         0.540997
 O         4.559767        -0.002697         1.930792
 C         3.127665         0.070445         2.478015
 C         2.410470         0.558522         1.242598
 O         2.294018         0.479191        -0.857365
 H        -0.953486        -0.319130         0.404152
 H        -0.466582         1.094294        -0.326692
 H        -0.297328        -0.318481        -1.245193
 H         2.183158        -2.072724         0.867592
 H         2.135469        -1.959839        -0.818984
 H         5.221394        -0.811718         0.083555
 H         5.123951         0.923165         0.219967
 H         2.723992        -0.909186         3.015705
 H         3.087837         0.835549         3.329673
 H         2.442364         1.629814         1.076488
