19
Iteration:  3860charge 0 multiplicity 1
 C        -0.003218         0.087367        -0.039188
 C         1.473790        -0.037669         0.107854
 C         2.413766        -1.350154         0.078843
 C         3.166597        -0.046311         0.030450
 C         4.547342         0.065059         0.560203
 O         4.436421        -0.218697         1.953914
 C         2.975598        -0.078739         2.410209
 C         2.393751         0.614194         1.224787
 O         2.257579         0.501587        -0.891840
 H        -0.485607        -0.776046        -0.528920
 H        -0.558642         0.386733         0.859625
 H        -0.168685         0.889352        -0.847958
 H         2.562828        -2.026991         0.970801
 H         2.281346        -1.863612        -0.906278
 H         5.237376        -0.686083         0.075511
 H         5.003872         1.053050         0.361722
 H         2.427504        -1.107237         2.705853
 H         2.902881         0.688574         3.276352
 H         2.505789         1.703832         1.116894
