19
Iteration:  4027
 C        -0.093321         0.126264        -0.031960
 C         1.415946        -0.031410         0.074478
 C         2.261010        -1.358125        -0.008565
 C         3.195474        -0.164016         0.114904
 C         4.562945         0.031850         0.551216
 O         4.503217        -0.038526         2.028022
 C         3.073691        -0.046420         2.470357
 C         2.347199         0.504086         1.182001
 O         2.353022         0.465877        -0.976439
 H        -0.412463         0.193889        -1.086948
 H        -0.640037        -0.754708         0.467783
 H        -0.228478         1.003717         0.527914
 H         2.121545        -2.101785         0.813825
 H         2.167528        -1.832565        -1.029092
 H         5.370209        -0.614848         0.099980
 H         4.923311         1.031564         0.298117
 H         2.790699        -0.935654         2.893460
 H         3.200973         0.648500         3.316456
 H         2.279116         1.612511         1.195589
