19
Iteration:  2383
 C        -0.118989         0.023780         0.002865
 C         1.412245         0.000797         0.134324
 C         2.183258        -1.349908        -0.001779
 C         3.227715        -0.163120         0.073313
 C         4.690028        -0.155775         0.659816
 O         4.505811         0.063134         2.050713
 C         3.027611         0.063936         2.391269
 C         2.404613         0.656358         1.138532
 O         2.290319         0.428829        -1.053949
 H        -0.327992        -0.371984         0.996120
 H        -0.360345         1.000303         0.073698
 H        -0.371628        -0.582818        -0.831018
 H         2.145025        -2.055341         0.798957
 H         1.902233        -1.880533        -0.919984
 H         5.221343        -1.107271         0.547262
 H         5.363083         0.574614         0.220031
 H         2.666959        -0.923769         2.577691
 H         3.030852         0.653516         3.368088
 H         2.499896         1.753363         0.989364
