19
Iteration:   496
 C        -0.073548         0.082580        -0.114009
 C         1.352162        -0.084367         0.203089
 C         2.326236        -1.354964         0.115469
 C         3.215423        -0.167785         0.137244
 C         4.669473         0.045314         0.520707
 O         4.466498        -0.053620         1.926397
 C         3.001081        -0.028898         2.423507
 C         2.297001         0.533933         1.185227
 O         2.352064         0.520861        -0.941006
 H        -0.568533        -0.609478         0.579115
 H        -0.337705         1.179185         0.061192
 H        -0.359095        -0.180831        -1.144820
 H         2.482287        -2.000450         0.997079
 H         2.281810        -2.058307        -0.695564
 H         5.323452        -0.819211         0.112840
 H         5.164040         1.068708         0.062372
 H         2.628565        -1.002891         2.820305
 H         2.995777         0.825179         3.230797
 H         2.263355         1.649491         1.108791
