19
Iteration:  4129charge 0 multiplicity 1
 C        -0.115888         0.025159        -0.035530
 C         1.408530        -0.148379         0.167169
 C         2.370588        -1.340497         0.027534
 C         3.168314        -0.006835         0.108637
 C         4.581515         0.050736         0.506569
 O         4.438017        -0.322888         1.951516
 C         3.011328         0.065769         2.474955
 C         2.342237         0.600407         1.224065
 O         2.414291         0.636631        -0.946586
 H        -0.609923        -1.021675         0.001058
 H        -0.734265         0.645110         0.612674
 H        -0.149948         0.331852        -1.176635
 H         2.384881        -2.233773         0.639699
 H         2.348337        -1.664988        -1.010354
 H         5.194794        -0.800317         0.208224
 H         4.887904         1.096862         0.482548
 H         2.827425        -0.992506         2.781882
 H         3.176877         0.811302         3.173491
 H         2.264865         1.687976         1.083586
