19
Iteration:  2937
 C        -0.037722         0.018754        -0.177681
 C         1.389706        -0.084606         0.140844
 C         2.171671        -1.410645         0.136844
 C         3.135785        -0.093350         0.082040
 C         4.537813        -0.017785         0.535143
 O         4.500786        -0.208832         2.010057
 C         3.205186         0.193670         2.543042
 C         2.474086         0.629063         1.201511
 O         2.235917         0.506859        -0.996729
 H        -0.717662        -0.623130         0.466128
 H        -0.256954         1.066733        -0.194368
 H        -0.007973        -0.168841        -1.311141
 H         2.057643        -2.172415         1.003154
 H         2.232824        -1.898200        -0.875448
 H         5.266478        -0.767496         0.093631
 H         4.902739         0.899281         0.225242
 H         2.814776        -0.876645         2.931647
 H         3.175523         1.090017         3.223896
 H         2.648991         1.694187         1.239024
