19
Iteration:  3866charge 0 multiplicity 1
 C         0.032048         0.131850        -0.062489
 C         1.436335        -0.112537         0.190741
 C         2.406661        -1.321655         0.053220
 C         3.203289        -0.033339         0.077280
 C         4.556178         0.066512         0.528985
 O         4.408957        -0.203717         1.966129
 C         2.979398        -0.091663         2.454747
 C         2.369303         0.577984         1.175980
 O         2.268954         0.517822        -0.939461
 H        -0.612715        -0.748495        -0.378792
 H        -0.706798         0.271469         0.757407
 H        -0.071163         0.945589        -0.711834
 H         2.501413        -1.984300         0.885539
 H         2.343270        -1.927175        -0.884463
 H         5.201671        -0.689408         0.118520
 H         5.005013         1.056028         0.154984
 H         2.624876        -0.971976         2.818218
 H         2.973778         0.589170         3.248912
 H         2.518974         1.661234         1.097227
