19
Iteration:   837charge 0 multiplicity 1
 C        -0.150697         0.184396        -0.212978
 C         1.325384        -0.134209         0.199606
 C         2.131715        -1.416822        -0.006778
 C         3.237075        -0.206469         0.144435
 C         4.675864        -0.097676         0.484985
 O         4.470688         0.370713         1.996356
 C         3.210360        -0.154156         2.384139
 C         2.338444         0.337353         1.257419
 O         2.384350         0.549596        -0.821009
 H        -1.023230        -0.331452         0.418296
 H        -0.288908         1.183600        -0.201994
 H        -0.161182        -0.192307        -1.239853
 H         2.061358        -2.136391         0.852659
 H         2.175681        -1.751955        -1.053671
 H         5.103748        -1.033063         0.523172
 H         5.143630         0.763881         0.025556
 H         3.165717        -1.314846         2.641590
 H         3.083715         0.429765         3.334496
 H         2.268960         1.360103         1.443016
