19
Iteration:  2415charge 0 multiplicity 1
 C        -0.048665         0.197144        -0.097623
 C         1.370500        -0.157421         0.143892
 C         2.276077        -1.449066         0.138761
 C         3.171077        -0.197186         0.111668
 C         4.626421        -0.055412         0.480729
 O         4.455318         0.124449         1.895372
 C         3.048692        -0.020121         2.441768
 C         2.290365         0.458776         1.227077
 O         2.416434         0.494098        -0.949843
 H        -0.580838         0.382744         0.911266
 H         0.024772         1.215767        -0.492471
 H        -0.756864        -0.285627        -0.775788
 H         2.246850        -1.903283         1.086152
 H         2.093848        -2.122294        -0.695568
 H         5.261049        -0.873016         0.442022
 H         5.094797         0.893953         0.174714
 H         2.834825        -0.939262         2.871515
 H         3.161115         0.703342         3.280837
 H         2.285928         1.545598         1.259650
