19
Iteration:  4040charge 0 multiplicity 1
 C        -0.006639         0.168419        -0.029021
 C         1.414819        -0.144925        -0.000561
 C         2.280580        -1.373588         0.111141
 C         3.171539        -0.093872         0.029202
 C         4.612457         0.034245         0.533406
 O         4.525744        -0.091179         1.993295
 C         3.030088        -0.026967         2.469208
 C         2.263504         0.482194         1.243492
 O         2.332166         0.552135        -0.954533
 H        -0.517409         0.044266        -1.068778
 H        -0.473651        -0.590657         0.713979
 H        -0.365124         1.131186         0.229955
 H         2.424580        -1.835983         1.053046
 H         2.301977        -2.067165        -0.775088
 H         5.195923        -0.857445         0.238810
 H         4.966874         1.008079         0.209397
 H         2.810463        -1.096478         2.576416
 H         2.835389         0.584165         3.308037
 H         2.326289         1.596517         1.161986
