19
Iteration:  3750charge 0 multiplicity 1
 C        -0.129992         0.103259        -0.107210
 C         1.424382        -0.078524         0.062109
 C         2.263419        -1.330385         0.163980
 C         3.182062        -0.041298         0.153590
 C         4.592780         0.117829         0.544310
 O         4.493580        -0.260018         1.942497
 C         3.075578         0.012310         2.396947
 C         2.397636         0.583057         1.234401
 O         2.331357         0.466104        -0.974946
 H        -0.446393         0.256956        -1.122622
 H        -0.423529        -0.868109         0.157988
 H        -0.353666         0.843508         0.635094
 H         2.192873        -1.981975         1.026494
 H         2.263870        -1.947068        -0.801630
 H         5.352258        -0.578091         0.182434
 H         4.925998         1.099404         0.389413
 H         2.616861        -0.985452         2.792749
 H         3.071190         0.644931         3.331406
 H         2.358339         1.656058         1.099334
