19
Iteration:  2439
 C        -0.028940         0.282393        -0.221506
 C         1.371225        -0.117375         0.170241
 C         2.235363        -1.509426         0.103085
 C         3.148034        -0.179547         0.187859
 C         4.544968         0.062395         0.483637
 O         4.583943         0.105986         2.030513
 C         3.175341        -0.046190         2.400964
 C         2.349171         0.478358         1.227992
 O         2.245437         0.357791        -0.936410
 H        -0.691630         0.503123         0.600009
 H         0.177642         1.192332        -0.705088
 H        -0.587171        -0.326393        -0.999216
 H         2.058669        -2.187083         0.954825
 H         2.180179        -1.924675        -0.908492
 H         5.238081        -0.777574         0.378125
 H         4.848311         1.018054         0.150571
 H         2.957865        -1.024400         2.769019
 H         3.067962         0.672897         3.299644
 H         2.364923         1.617891         1.284644
