19
Iteration:  1941
 C        -0.140643         0.072499        -0.214486
 C         1.360604        -0.065902         0.129991
 C         2.179991        -1.393069         0.026026
 C         3.147307        -0.177375         0.122533
 C         4.608680        -0.017944         0.478844
 O         4.590355         0.037320         1.966165
 C         3.178043         0.085848         2.578801
 C         2.312603         0.529238         1.252798
 O         2.367178         0.448701        -0.882282
 H        -0.645873        -0.624804         0.426051
 H        -0.485728         1.143234         0.002226
 H        -0.217111        -0.293296        -1.276150
 H         1.997367        -2.045619         0.873247
 H         2.057990        -1.807127        -0.984888
 H         5.284422        -0.967810         0.372810
 H         5.061371         0.824697        -0.057567
 H         2.864381        -0.952228         2.881120
 H         2.998857         0.820832         3.371143
 H         2.435372         1.566236         1.113331
