19
Iteration:     8
 C        -0.033652         0.079980        -0.070273
 C         1.380433        -0.154195         0.108928
 C         2.236227        -1.362947         0.035240
 C         3.241555        -0.086563         0.117258
 C         4.622637         0.104468         0.559258
 O         4.464059        -0.063816         1.961630
 C         3.070118         0.069746         2.431533
 C         2.317692         0.519218         1.170391
 O         2.350340         0.427110        -0.888119
 H        -0.708905        -0.435944         0.725842
 H        -0.361203         1.060391        -0.226114
 H        -0.322947        -0.358540        -0.983591
 H         2.194579        -2.044883         0.920564
 H         2.121100        -2.023604        -0.816507
 H         5.101329        -0.862185         0.302361
 H         5.122091         1.107566         0.218805
 H         2.616638        -0.905718         2.792130
 H         3.148901         0.868425         3.171323
 H         2.466206         1.581192         1.045348
