19
Iteration:  3441charge 0 multiplicity 1
 C         0.021630         0.127065        -0.067359
 C         1.398404        -0.109488         0.231064
 C         2.227238        -1.385470         0.207799
 C         3.165385        -0.191815         0.035059
 C         4.597894        -0.000364         0.496879
 O         4.483829        -0.091533         2.002322
 C         3.024659         0.144982         2.364852
 C         2.361852         0.535437         1.161566
 O         2.333311         0.428386        -0.978861
 H        -0.586246        -0.783678        -0.110181
 H        -0.405811         0.979743         0.614552
 H        -0.024901         0.388673        -1.110309
 H         1.990766        -1.861570         1.177477
 H         2.208561        -2.001097        -0.663203
 H         5.416157        -0.673611         0.159404
 H         4.949590         1.034230         0.180359
 H         2.750262        -0.694166         2.836717
 H         3.062968         1.032048         3.004163
 H         2.425144         1.574026         0.931857
