19
Iteration:  3491
 C        -0.083702         0.019297         0.017736
 C         1.372203        -0.137354         0.100353
 C         2.280563        -1.330094         0.180757
 C         3.223480        -0.070322         0.055197
 C         4.687764        -0.086694         0.583232
 O         4.446298        -0.248970         2.017255
 C         3.075483         0.260676         2.460407
 C         2.338056         0.629951         1.077375
 O         2.302448         0.492787        -1.088792
 H        -0.722927        -0.753577         0.439296
 H        -0.282534         0.955019         0.447566
 H        -0.393283         0.057323        -1.040934
 H         2.375606        -1.786147         1.155697
 H         2.166024        -2.052425        -0.697791
 H         5.223307        -0.929834         0.237174
 H         5.274959         0.773718         0.389837
 H         2.674038        -0.617104         3.164438
 H         3.338508         1.154219         3.030747
 H         2.065115         1.702714         0.864153
