19
Iteration:   462charge 0 multiplicity 1
 C        -0.038082         0.046713        -0.028062
 C         1.426535        -0.146186         0.061977
 C         2.329454        -1.360702        -0.026466
 C         3.233738        -0.123056         0.145025
 C         4.636539         0.145028         0.656702
 O         4.381928        -0.344424         1.973726
 C         3.131265         0.213481         2.464351
 C         2.300962         0.563791         1.152934
 O         2.245491         0.467556        -1.016053
 H        -0.376982        -0.294022         0.895195
 H        -0.332145         1.188076        -0.004741
 H        -0.629985        -0.528730        -0.798330
 H         2.482950        -1.999514         0.840491
 H         2.354269        -1.796244        -1.018183
 H         5.404716        -0.527042         0.213660
 H         4.762254         1.359390         0.622362
 H         2.759594        -0.506545         3.189953
 H         3.479430         1.189189         3.085524
 H         2.232435         1.696210         1.079682
