19
Iteration:  2461
 C        -0.150499         0.237917        -0.238084
 C         1.347933        -0.094038         0.132683
 C         2.130313        -1.457753         0.135734
 C         3.224839        -0.195708         0.135421
 C         4.630903         0.045313         0.508144
 O         4.553602         0.060101         1.975289
 C         3.134626         0.004829         2.450779
 C         2.422026         0.501949         1.232556
 O         2.306637         0.396483        -0.909311
 H        -0.737809         0.024442         0.655033
 H        -0.235375         1.236120        -0.565512
 H        -0.345568        -0.551640        -1.038068
 H         2.106863        -2.065991         1.090089
 H         2.148113        -2.012517        -0.801346
 H         5.457894        -0.756894         0.452759
 H         4.775875         1.066928         0.146875
 H         2.934701        -1.022637         2.671005
 H         3.167955         0.448427         3.526004
 H         2.507997         1.655364         1.074537
