19
Iteration:  2622
 C        -0.058157         0.107562        -0.278822
 C         1.342642        -0.059086         0.121489
 C         2.281287        -1.398700         0.197091
 C         3.227053        -0.128066         0.210216
 C         4.654902         0.016162         0.486771
 O         4.493001        -0.187305         1.937245
 C         3.079896         0.100855         2.396385
 C         2.428914         0.594244         1.200269
 O         2.217995         0.494330        -0.866754
 H        -0.624632         0.329043         0.711021
 H        -0.446611         0.953525        -0.751584
 H        -0.526239        -0.898869        -0.627043
 H         2.278933        -2.162624         0.967383
 H         2.267146        -1.805447        -0.790455
 H         5.107532        -0.868116         0.212255
 H         5.140898         1.035085         0.380301
 H         2.746168        -0.912968         2.821460
 H         3.089750         0.752635         3.303274
 H         2.538080         1.703772         1.197132
