19
Iteration:  1783
 C        -0.204030         0.016275        -0.151357
 C         1.399372        -0.160164         0.139934
 C         2.400138        -1.329848         0.265467
 C         3.204591        -0.015489         0.061464
 C         4.593630         0.029326         0.484893
 O         4.428653        -0.305427         1.944552
 C         3.068872         0.077714         2.405100
 C         2.397254         0.671336         1.200396
 O         2.331324         0.552993        -0.952449
 H        -0.707999         0.218025         0.817667
 H        -0.340879         0.856532        -0.815461
 H        -0.576639        -0.876647        -0.610551
 H         2.532946        -1.902935         1.173536
 H         2.663198        -2.086332        -0.486714
 H         5.294146        -0.727488         0.015099
 H         5.236520         0.983781         0.524463
 H         2.487038        -0.654002         3.005328
 H         3.290923         0.847321         3.195792
 H         2.066679         1.742171         0.984955
