19
Iteration:  4713charge 0 multiplicity 1
 C        -0.047015         0.031138        -0.046145
 C         1.478465        -0.078455         0.095465
 C         2.399242        -1.299448        -0.000282
 C         3.174588         0.050993         0.077702
 C         4.641298         0.196047         0.542342
 O         4.400255        -0.402762         1.986695
 C         3.104113        -0.136565         2.440825
 C         2.332667         0.488377         1.245727
 O         2.202728         0.696486        -0.926111
 H        -0.270638         1.047089        -0.466254
 H        -0.577863        -0.630630        -0.744618
 H        -0.545075        -0.342111         0.822483
 H         2.485236        -1.971972         0.889200
 H         2.491381        -1.787542        -1.076856
 H         5.242680        -0.533316         0.035043
 H         5.079448         1.171910         0.446464
 H         2.658105        -1.115793         2.996228
 H         2.919551         0.711672         3.099185
 H         2.291514         1.560073         1.315168
