19
Iteration:  2208charge 0 multiplicity 1
 C        -0.094229        -0.000253         0.082352
 C         1.440927        -0.002393         0.005105
 C         2.184060        -1.365875        -0.023851
 C         3.259748        -0.199381         0.139820
 C         4.632381        -0.191415         0.687807
 O         4.491587         0.164222         2.073510
 C         3.027875         0.046124         2.378799
 C         2.405146         0.557070         1.101128
 O         2.254913         0.532789        -1.083118
 H        -0.373751         0.018431         1.167768
 H        -0.376601         0.854700        -0.392669
 H        -0.541524        -0.827479        -0.365954
 H         2.238629        -2.031563         0.856697
 H         2.114016        -1.948433        -0.958154
 H         5.139561        -1.239251         0.697973
 H         5.249972         0.518119         0.283353
 H         2.944417        -1.009617         2.617650
 H         3.035339         0.602599         3.385732
 H         2.776508         1.634625         0.952838
