19
Iteration:  3033
 C        -0.144992         0.160477         0.005373
 C         1.394553        -0.150965         0.139278
 C         2.182144        -1.406586         0.052423
 C         3.182271        -0.181412         0.055361
 C         4.652718        -0.054490         0.574409
 O         4.504310         0.009716         2.017466
 C         3.119853         0.074539         2.408971
 C         2.341727         0.566847         1.121448
 O         2.396029         0.480658        -0.954885
 H        -0.715904        -0.467071         0.768872
 H        -0.415373         1.221728         0.012616
 H        -0.617942        -0.103096        -1.046761
 H         2.154746        -2.100889         0.886930
 H         2.266315        -1.952243        -0.849572
 H         5.240838        -1.074740         0.424646
 H         5.225124         0.909890         0.227699
 H         2.892228        -0.962540         2.649455
 H         2.958595         0.734471         3.243320
 H         2.296896         1.686034         0.947758
