19
Iteration:  1463
 C        -0.046618        -0.063967        -0.095010
 C         1.388838        -0.100749         0.222522
 C         2.260266        -1.330065         0.206008
 C         3.159978        -0.047836         0.082302
 C         4.650076         0.043857         0.446313
 O         4.338644        -0.301398         1.927387
 C         3.098618         0.168576         2.398271
 C         2.347792         0.587810         1.160669
 O         2.444681         0.550902        -0.941455
 H        -0.462883        -0.807219         0.543305
 H        -0.597542         0.967132         0.160157
 H        -0.147546        -0.254601        -1.209886
 H         2.218031        -1.673669         1.232608
 H         2.146714        -1.973654        -0.666061
 H         5.270108        -0.786104         0.167281
 H         5.107287         1.096670         0.391054
 H         2.587111        -0.523067         3.015742
 H         3.180769         1.020491         3.090032
 H         2.283713         1.679310         0.996997
