19
Iteration:  3110charge 0 multiplicity 1
 C        -0.073323         0.086926        -0.139411
 C         1.452127         0.002127         0.107661
 C         2.201163        -1.370965         0.145579
 C         3.155234        -0.055643         0.149969
 C         4.644222         0.016170         0.453253
 O         4.460369        -0.103373         1.969056
 C         3.128545        -0.034555         2.480780
 C         2.376313         0.586088         1.242977
 O         2.316226         0.416734        -0.983539
 H        -0.668104         0.186660         0.851237
 H        -0.253554         0.905297        -0.802344
 H        -0.570191        -0.918675        -0.578799
 H         2.058641        -1.912579         1.062447
 H         2.106687        -1.855983        -0.812121
 H         5.339956        -0.794227         0.019803
 H         5.051842         1.071378         0.347420
 H         2.646105        -0.919046         2.886206
 H         3.195989         0.600978         3.353044
 H         2.483385         1.695294         1.165776
