19
Iteration:     2charge 0 multiplicity 1
 C        -0.059436         0.043004        -0.082417
 C         1.401796        -0.119238         0.117499
 C         2.291954        -1.361725         0.101658
 C         3.200304        -0.094387         0.096125
 C         4.616619         0.047415         0.554632
 O         4.456536        -0.087866         1.979714
 C         3.068290         0.065684         2.421248
 C         2.342254         0.558641         1.175655
 O         2.321721         0.466155        -0.938204
 H        -0.611565        -0.414156         0.708626
 H        -0.361955         1.130501        -0.159296
 H        -0.379317        -0.442952        -1.054190
 H         2.296053        -2.012319         0.977042
 H         2.264948        -1.959522        -0.826752
 H         5.254598        -0.784767         0.239020
 H         5.032855         0.997257         0.286144
 H         2.693728        -0.882099         2.790888
 H         3.077396         0.810684         3.230138
 H         2.365713         1.667285         1.084442
