19
Iteration:  4064charge 0 multiplicity 1
 C        -0.079952         0.099437        -0.050267
 C         1.381569        -0.123421         0.186522
 C         2.359222        -1.343242         0.091891
 C         3.250572        -0.027058         0.063154
 C         4.639000        -0.010286         0.539789
 O         4.420517        -0.132090         1.956690
 C         3.064792        -0.054506         2.410030
 C         2.318802         0.558534         1.172327
 O         2.317151         0.528514        -0.894898
 H        -0.444224        -0.431665        -1.014869
 H        -0.838425         0.049910         0.734530
 H        -0.298373         1.115690        -0.529794
 H         2.457084        -2.067208         0.871181
 H         2.342542        -1.689705        -0.943600
 H         5.183700        -0.842077         0.143038
 H         5.036196         0.987550         0.346240
 H         2.641933        -1.143729         2.589440
 H         2.979084         0.654692         3.206943
 H         2.356621         1.664461         1.204878
