19
Iteration:   908charge 0 multiplicity 1
 C        -0.082896        -0.031038         0.037971
 C         1.392970        -0.098628         0.167214
 C         2.331582        -1.329286         0.075996
 C         3.198166        -0.092668         0.025000
 C         4.617295         0.036596         0.521534
 O         4.406078        -0.207901         2.041115
 C         3.043491         0.046877         2.401367
 C         2.411130         0.583104         1.119910
 O         2.345067         0.593607        -1.003066
 H        -0.511213        -0.682255         0.752067
 H        -0.413477         1.127553         0.254751
 H        -0.292735        -0.385530        -0.985707
 H         2.185126        -1.924895         0.953531
 H         2.444764        -1.787091        -0.908489
 H         5.254679        -0.855453         0.285695
 H         4.943214         1.059230         0.396549
 H         2.560014        -0.851544         2.827572
 H         2.871173         0.846591         3.144313
 H         2.426009         1.736747         1.032599
