19
Iteration:  4917
 C        -0.189933         0.020041        -0.110556
 C         1.382509        -0.028395         0.125609
 C         2.320979        -1.267820        -0.164566
 C         3.204560        -0.074928         0.149871
 C         4.630826         0.086600         0.570505
 O         4.569366        -0.074431         1.989503
 C         3.069113        -0.281147         2.422416
 C         2.347851         0.460859         1.262538
 O         2.310407         0.678889        -0.808830
 H        -0.665292         0.941576        -0.559228
 H        -0.590478        -0.782371        -0.729048
 H        -0.860298         0.028797         0.740200
 H         2.465158        -2.076041         0.557282
 H         2.298247        -1.592615        -1.284750
 H         5.206639        -0.796231         0.252284
 H         5.166034         0.930988         0.261412
 H         2.864596        -1.358760         2.653454
 H         2.919869         0.263450         3.439621
 H         2.359058         1.632448         1.268043
