19
Iteration:  2276charge 0 multiplicity 1
 C        -0.046674         0.117440        -0.185601
 C         1.388996        -0.093070         0.126942
 C         2.234939        -1.385596         0.274106
 C         3.172136        -0.113576         0.097952
 C         4.638381         0.147490         0.530076
 O         4.493235        -0.210482         1.916299
 C         3.090143         0.124104         2.416593
 C         2.341746         0.561574         1.217654
 O         2.308768         0.366811        -0.945120
 H        -0.683750        -0.253988         0.624654
 H        -0.106689         1.160715        -0.436441
 H        -0.311332        -0.389903        -1.163660
 H         2.227371        -1.948834         1.248707
 H         2.159819        -2.086284        -0.622327
 H         5.319387        -0.674183         0.064194
 H         4.995886         1.202575         0.434685
 H         2.615904        -0.734307         2.967251
 H         3.124032         1.027295         3.098637
 H         2.416746         1.720795         1.064708
