19
Iteration:   933
 C        -0.066248         0.000629         0.099760
 C         1.471150        -0.037223         0.099458
 C         2.390206        -1.365876         0.074409
 C         3.233575        -0.043682         0.072751
 C         4.660752         0.154787         0.640141
 O         4.353321        -0.403727         1.898658
 C         2.968167         0.070499         2.394390
 C         2.403647         0.720546         1.132754
 O         2.292876         0.478735        -1.033063
 H        -0.481357        -0.493479         1.069866
 H        -0.438630         0.969544        -0.001589
 H        -0.316256        -0.602740        -0.725915
 H         2.182479        -1.937721         1.008779
 H         2.361767        -1.984519        -0.863970
 H         5.393299        -0.553197         0.253304
 H         4.911378         1.222672         0.693142
 H         2.439250        -0.674885         2.831562
 H         3.125430         0.920893         3.085207
 H         2.174494         1.764236         1.177692
