19
Iteration:  2815
 C        -0.085859         0.041402        -0.039541
 C         1.407444        -0.066404         0.159962
 C         2.269290        -1.312332         0.099040
 C         3.169293        -0.101346         0.090265
 C         4.615977        -0.008995         0.497682
 O         4.417769        -0.148211         1.923121
 C         3.047103         0.111225         2.432810
 C         2.329664         0.603048         1.236677
 O         2.425121         0.433970        -0.946517
 H        -0.521365        -0.531474         0.826336
 H        -0.301093         1.115768        -0.002010
 H        -0.225853        -0.332305        -1.092774
 H         2.271418        -2.114169         0.935856
 H         2.192713        -1.708366        -0.933553
 H         5.200557        -0.948267         0.183889
 H         5.203374         0.823842         0.240634
 H         2.613930        -0.902463         2.832824
 H         3.083432         0.964563         3.158169
 H         2.386725         1.695777         1.054769
