19
Iteration:  2360
 C        -0.128398        -0.025608         0.042417
 C         1.383700        -0.020030         0.067037
 C         2.272270        -1.301715         0.098415
 C         3.251437        -0.128683         0.082046
 C         4.655698        -0.241736         0.606674
 O         4.460330        -0.021461         2.077182
 C         3.026432         0.164028         2.382326
 C         2.451854         0.588069         1.044635
 O         2.252554         0.544987        -1.051275
 H        -0.390600        -0.898631         0.730013
 H        -0.505539         0.868058         0.433477
 H        -0.224246        -0.288105        -0.979793
 H         2.221810        -1.853120         1.006371
 H         2.244059        -2.017693        -0.730433
 H         5.192525        -1.138085         0.548248
 H         5.448179         0.499051         0.357531
 H         2.588679        -0.721411         2.782538
 H         3.031819         0.945729         3.164547
 H         2.453238         1.660709         0.936318
