19
Iteration:  3926charge 0 multiplicity 1
 C        -0.065864         0.032581        -0.134467
 C         1.442673        -0.054757         0.138901
 C         2.167682        -1.386021        -0.003495
 C         3.234573        -0.188182         0.037719
 C         4.603545        -0.020060         0.542730
 O         4.428034        -0.042534         1.990647
 C         3.083549        -0.024120         2.457818
 C         2.409522         0.599770         1.262426
 O         2.307301         0.572621        -0.903809
 H        -0.253431        -0.037157        -1.156597
 H        -0.428701        -0.743626         0.512359
 H        -0.421980         1.042099         0.281156
 H         2.189062        -2.023177         0.961583
 H         1.933576        -1.884658        -0.934896
 H         5.422802        -0.813902         0.393398
 H         4.916543         1.011975         0.129212
 H         2.867942        -1.023904         2.780659
 H         3.241617         0.653930         3.368341
 H         2.680756         1.665866         1.207590
