19
Iteration:  1273charge 0 multiplicity 1
 C        -0.020778        -0.039302        -0.037481
 C         1.408173         0.014998         0.122203
 C         2.217305        -1.300695         0.111797
 C         3.227356        -0.139689         0.088105
 C         4.625884        -0.066443         0.521559
 O         4.451855        -0.121846         1.977746
 C         3.000469         0.031804         2.431200
 C         2.386277         0.685217         1.132691
 O         2.331145         0.510073        -0.944057
 H        -0.244493        -0.909986         0.715397
 H        -0.656502         0.666260         0.280619
 H        -0.326035        -0.300538        -1.040328
 H         2.262445        -1.933507         1.010953
 H         2.267419        -1.724968        -0.889023
 H         5.316703        -0.923774         0.238651
 H         5.170740         0.867712         0.293034
 H         2.536816        -0.920279         2.879239
 H         2.906856         0.832170         3.180828
 H         2.526969         1.745018         0.901521
