19
Iteration:  1562
 C        -0.164769         0.065288        -0.008242
 C         1.392012        -0.088175         0.094185
 C         2.151735        -1.363428        -0.052980
 C         3.273431        -0.144961         0.137109
 C         4.784596        -0.059803         0.586401
 O         4.503015         0.086808         2.053114
 C         3.044722        -0.026037         2.436257
 C         2.321546         0.577961         1.160589
 O         2.330716         0.470677        -0.997845
 H        -0.617599        -0.004373         0.951113
 H        -0.516685         1.219445        -0.337627
 H        -0.468124        -0.870531        -0.656922
 H         2.042658        -2.003199         0.823161
 H         2.166252        -1.914065        -0.999875
 H         5.263761        -1.003083         0.461679
 H         5.370477         0.892049         0.261994
 H         2.697151        -1.003259         2.534538
 H         2.909667         0.450391         3.366420
 H         2.601546         1.629701         1.023523
