19
Iteration:  4417
 C        -0.067250         0.008083        -0.080357
 C         1.425700        -0.104799         0.065641
 C         2.422475        -1.276547        -0.049233
 C         3.164855         0.004498         0.065110
 C         4.613703         0.102990         0.576827
 O         4.452523        -0.366781         1.970122
 C         3.058743        -0.077103         2.434890
 C         2.360592         0.530965         1.226541
 O         2.233361         0.696644        -0.838458
 H        -0.401529         1.063285        -0.195603
 H        -0.317040        -0.682141        -0.929145
 H        -0.633418        -0.174252         0.845177
 H         2.525489        -1.836139         0.886516
 H         2.277492        -1.805869        -1.043508
 H         5.356390        -0.588005         0.175585
 H         5.098092         1.176158         0.701200
 H         2.519885        -1.010426         2.635777
 H         3.086403         0.534653         3.293203
 H         2.192352         1.621103         1.203416
