19
Iteration:  4482charge 0 multiplicity 1
 C        -0.028855        -0.037211        -0.057123
 C         1.439285        -0.028061         0.088567
 C         2.288737        -1.251048        -0.026123
 C         3.268328        -0.009232         0.022867
 C         4.675854         0.129251         0.611075
 O         4.422799        -0.350090         1.993643
 C         3.081328        -0.084133         2.448933
 C         2.364868         0.513885         1.205098
 O         2.181132         0.659956        -0.908059
 H        -0.516002         0.700699         0.611387
 H        -0.337524         0.317179        -1.064198
 H        -0.372858        -1.044462         0.151568
 H         2.338996        -1.889533         0.943084
 H         1.974071        -1.898729        -0.970553
 H         5.475737        -0.477915         0.239741
 H         4.863429         1.227979         0.580694
 H         2.655305        -1.070320         2.645072
 H         3.141787         0.574660         3.288727
 H         2.462645         1.635662         1.236526
