19
Iteration:  2508
 C        -0.154017         0.010859         0.006688
 C         1.387261        -0.047898         0.116110
 C         2.358282        -1.358298         0.076161
 C         3.212025        -0.083280         0.087280
 C         4.656046        -0.173565         0.518352
 O         4.418095        -0.088559         2.037295
 C         3.034049         0.139409         2.376915
 C         2.439017         0.707731         1.146854
 O         2.317385         0.473943        -0.955771
 H        -0.529923        -0.760050         0.608872
 H        -0.530946         1.046018         0.245038
 H        -0.284210        -0.222327        -1.000492
 H         2.345523        -2.139505         0.910263
 H         2.426679        -1.735313        -0.980884
 H         4.771822        -1.267515         0.167583
 H         5.355442         0.585533         0.332612
 H         2.550473        -0.805019         2.847405
 H         2.925679         0.834449         3.204631
 H         2.436327         1.798921         0.973642
