19
Iteration:  3178
 C         0.014958         0.046279         0.064437
 C         1.429525        -0.119660         0.065406
 C         2.261519        -1.371003         0.087719
 C         3.225564        -0.125499         0.106879
 C         4.673777        -0.017769         0.568482
 O         4.459022        -0.259077         2.037901
 C         2.985048         0.210442         2.354403
 C         2.353588         0.686738         1.165589
 O         2.248302         0.490688        -1.030058
 H        -0.477158        -0.787937         0.595832
 H        -0.266207         1.122008         0.364381
 H        -0.479277        -0.052308        -0.965917
 H         2.307367        -2.041296         0.964409
 H         2.135985        -2.006980        -0.866395
 H         5.329198        -0.856364         0.003522
 H         4.990666         1.046388         0.459181
 H         2.730388        -0.661696         2.825695
 H         3.116334         0.924877         3.121786
 H         2.391650         1.724166         0.968191
