19
Iteration:  3784charge 0 multiplicity 1
 C        -0.063638         0.051068        -0.106176
 C         1.441035        -0.158131         0.192043
 C         2.344551        -1.349284         0.040668
 C         3.198136         0.006510         0.058985
 C         4.672051         0.019104         0.570760
 O         4.418808        -0.308056         1.972008
 C         3.052964         0.134883         2.415431
 C         2.384105         0.538875         1.221514
 O         2.247960         0.583200        -0.927317
 H        -0.447075        -0.298290        -1.036154
 H        -0.490800        -0.371593         0.789473
 H        -0.529328         1.076116        -0.001789
 H         2.505549        -2.022816         0.873963
 H         2.353343        -1.775970        -0.968830
 H         5.105498        -0.869517         0.065822
 H         5.165766         0.904143         0.362730
 H         2.502906        -0.792343         2.833910
 H         3.029924         1.038743         3.071034
 H         2.211364         1.623830         1.130220
