19
Iteration:  1453charge 0 multiplicity 1
 C        -0.101558        -0.085394        -0.055362
 C         1.404135        -0.044173         0.136583
 C         2.277591        -1.353090         0.147202
 C         3.212269        -0.065458         0.154355
 C         4.607105        -0.011187         0.528979
 O         4.430801        -0.290456         1.925282
 C         3.065306         0.208437         2.391316
 C         2.306848         0.667848         1.197931
 O         2.409828         0.543308        -0.957651
 H        -0.566096        -0.866392         0.412950
 H        -0.506997         0.974162         0.222934
 H        -0.316914        -0.251750        -1.154182
 H         2.301541        -2.079520         0.962786
 H         2.277084        -2.011131        -0.721932
 H         5.203442        -0.840934         0.206637
 H         5.194524         0.875484         0.165802
 H         2.678999        -0.686608         2.866539
 H         3.150642         1.111018         2.985708
 H         2.299693         1.760515         1.112026
