19
Iteration:  2424charge 0 multiplicity 1
 C         0.006734         0.314032        -0.139807
 C         1.356054        -0.223698         0.149602
 C         2.209275        -1.449404         0.147382
 C         3.144978        -0.165762         0.057731
 C         4.634803         0.000760         0.518815
 O         4.499019         0.114115         1.915063
 C         3.094804         0.008763         2.485145
 C         2.280576         0.414530         1.255553
 O         2.370823         0.438067        -0.927354
 H        -0.677755         0.291503         0.815856
 H        -0.058802         1.256306        -0.799749
 H        -0.566788        -0.463639        -0.775127
 H         2.336849        -1.970231         1.072560
 H         2.227443        -2.097033        -0.733784
 H         5.214174        -0.821303         0.169580
 H         5.137260         0.982041         0.085738
 H         2.934132        -1.042354         2.735196
 H         3.037228         0.620721         3.344591
 H         2.198364         1.455544         1.142485
