19
Iteration:  1415
 C        -0.110487         0.044039        -0.010932
 C         1.450443        -0.109209         0.108771
 C         2.300252        -1.389480         0.058035
 C         3.277250        -0.158146        -0.004139
 C         4.693454        -0.085890         0.639015
 O         4.457339        -0.032371         2.072221
 C         3.049296         0.082718         2.407428
 C         2.395570         0.532443         1.131366
 O         2.177102         0.595488        -1.023194
 H        -0.813255        -0.605957         0.783987
 H        -0.453234         1.054284         0.044660
 H        -0.308999        -0.179230        -1.061092
 H         2.315228        -2.022744         0.995613
 H         2.191476        -1.786914        -0.966418
 H         5.132803        -1.112037         0.345727
 H         5.297940         0.796603         0.358393
 H         2.779257        -0.806722         2.973758
 H         3.078741         0.860990         3.201997
 H         2.383703         1.634116         1.133771
