19
Iteration:  2469charge 0 multiplicity 1
 C        -0.104485         0.173422        -0.185589
 C         1.386482        -0.061977         0.147270
 C         2.119368        -1.468778         0.169158
 C         3.184649        -0.157264         0.127710
 C         4.611209         0.033552         0.490651
 O         4.551958         0.041372         2.005656
 C         3.141582        -0.004284         2.417237
 C         2.390056         0.477122         1.189265
 O         2.366478         0.451667        -0.924544
 H        -0.868548        -0.131901         0.630926
 H        -0.362210         1.173727        -0.535527
 H        -0.428441        -0.438497        -1.084590
 H         1.892148        -1.956712         1.078448
 H         2.071896        -2.129700        -0.699508
 H         5.289744        -0.775634         0.315704
 H         5.104538         1.007911         0.087105
 H         2.889399        -0.993553         2.714629
 H         3.046565         0.742047         3.250044
 H         2.356148         1.549568         1.232142
