19
Iteration:   598charge 0 multiplicity 1
 C        -0.127085         0.184424        -0.036171
 C         1.285828        -0.214565         0.154744
 C         2.246575        -1.426787        -0.055348
 C         3.209753        -0.125063         0.071442
 C         4.698304        -0.067239         0.610686
 O         4.448544         0.238838         1.996308
 C         3.117000        -0.075354         2.440113
 C         2.356040         0.441368         1.206661
 O         2.348676         0.503862        -0.957066
 H        -0.723918        -0.110900         0.905110
 H        -0.171576         1.218602        -0.070897
 H        -0.489840        -0.269709        -0.947923
 H         2.259975        -2.204256         0.714978
 H         2.374556        -1.792412        -1.094211
 H         5.180112        -1.083588         0.379435
 H         5.380251         0.665483         0.100900
 H         2.954220        -1.146544         2.877753
 H         2.961282         0.594543         3.206607
 H         2.504475         1.490125         1.148233
