19
Iteration:  3740charge 0 multiplicity 1
 C        -0.019787         0.109515        -0.066293
 C         1.384103        -0.028521         0.072447
 C         2.219604        -1.447886         0.164517
 C         3.197093        -0.085153         0.101317
 C         4.645941         0.145344         0.478839
 O         4.470094        -0.220223         1.950930
 C         3.044870        -0.010538         2.438788
 C         2.306500         0.621019         1.160292
 O         2.378849         0.476989        -0.882161
 H        -0.292142         0.406203        -1.049132
 H        -0.395672        -0.877111        -0.007061
 H        -0.754670         0.694013         0.527623
 H         2.149535        -2.060316         1.033308
 H         2.032320        -1.993738        -0.790903
 H         5.403048        -0.565463         0.054824
 H         5.020366         1.165223         0.410836
 H         2.716353        -1.074854         2.642391
 H         3.242950         0.671394         3.271765
 H         2.382851         1.714698         1.160736
