19
Iteration:  2096
 C        -0.029738         0.012424        -0.173646
 C         1.391827        -0.075292         0.120778
 C         2.213287        -1.355464         0.239898
 C         3.189153        -0.158745         0.061283
 C         4.602149         0.002135         0.534613
 O         4.477583        -0.103453         1.886262
 C         3.097300         0.087227         2.497170
 C         2.335416         0.618267         1.237755
 O         2.330677         0.485004        -0.959443
 H        -0.455630        -0.787348         0.357873
 H        -0.490474         0.975382         0.144910
 H        -0.203030         0.095955        -1.215489
 H         2.161190        -1.924967         1.171720
 H         2.360050        -2.002205        -0.610629
 H         5.251927        -0.805811         0.058847
 H         4.905123         0.940212         0.203767
 H         2.779611        -0.900297         2.884127
 H         3.106281         0.889202         3.271083
 H         2.484589         1.683367         1.240115
