19
Iteration:  4813
 C        -0.081452         0.018080        -0.038264
 C         1.464562        -0.037252         0.111338
 C         2.363326        -1.275947        -0.111223
 C         3.171522        -0.080133         0.075291
 C         4.645117         0.025555         0.503863
 O         4.452435        -0.077135         1.956270
 C         3.058834        -0.172414         2.449746
 C         2.277370         0.484210         1.325145
 O         2.314789         0.605604        -0.848696
 H        -0.439987         0.721106         0.669158
 H        -0.299552         0.636844        -0.909406
 H        -0.727960        -0.898416        -0.028732
 H         2.196645        -2.159824         0.600001
 H         2.224031        -1.553442        -1.146293
 H         5.314489        -0.724288         0.201635
 H         5.078332         1.039047         0.365864
 H         2.601560        -1.220115         2.586069
 H         3.094466         0.435226         3.307116
 H         2.318765         1.562572         1.398288
