19
Iteration:  4734charge 0 multiplicity 1
 C        -0.099282        -0.015953        -0.056446
 C         1.438414        -0.142254         0.217606
 C         2.351226        -1.267547        -0.040717
 C         3.168211         0.025666         0.035600
 C         4.625351         0.125706         0.635560
 O         4.457731        -0.395610         1.865928
 C         3.061701        -0.051028         2.445064
 C         2.350768         0.545504         1.247449
 O         2.304790         0.688857        -0.909006
 H        -0.320923         1.098573         0.034216
 H        -0.330824        -0.355276        -1.084387
 H        -0.726293        -0.682280         0.527362
 H         2.559169        -1.839051         0.832749
 H         2.266785        -1.764243        -1.080291
 H         5.501728        -0.403157         0.188290
 H         4.860386         1.230238         0.617333
 H         2.435688        -0.952853         2.771647
 H         3.191848         0.609680         3.326083
 H         2.032303         1.556540         1.297503
