19
Iteration:  4701charge 0 multiplicity 1
 C        -0.096629         0.023183        -0.046394
 C         1.378973        -0.103276         0.040015
 C         2.449260        -1.270788        -0.055487
 C         3.218041         0.016654         0.146769
 C         4.586462         0.113547         0.555974
 O         4.489984        -0.360245         1.928280
 C         3.006700        -0.088133         2.424106
 C         2.326532         0.543692         1.264575
 O         2.259610         0.663397        -0.859959
 H        -0.402610         1.065181        -0.404315
 H        -0.439131        -0.775741        -0.707625
 H        -0.450057         0.112626         0.952576
 H         2.523636        -1.996453         0.741896
 H         2.570930        -1.788891        -1.088576
 H         5.369908        -0.535035         0.088260
 H         4.889342         1.165925         0.588229
 H         2.522307        -1.127669         2.685053
 H         3.266850         0.438620         3.347187
 H         2.146240         1.606202         1.301275
