19
Iteration:  2306charge 0 multiplicity 1
 C        -0.125979         0.114834        -0.166875
 C         1.366987        -0.091319         0.137979
 C         2.259745        -1.405996         0.274218
 C         3.176708        -0.150777         0.023009
 C         4.601562         0.108327         0.576409
 O         4.506741        -0.247747         1.964640
 C         3.124186         0.183774         2.441577
 C         2.359169         0.621869         1.188671
 O         2.322203         0.363790        -1.023693
 H        -0.643953        -0.701008         0.378893
 H        -0.266629         1.109253         0.068536
 H        -0.225635         0.102320        -1.220314
 H         2.377714        -1.972700         1.170865
 H         2.131814        -2.008974        -0.632711
 H         5.516114        -0.511686         0.252693
 H         4.793408         1.232879         0.579272
 H         2.665699        -0.659738         2.989574
 H         3.299397         1.088065         3.148650
 H         2.364479         1.718658         1.057423
