19
Iteration:  1594
 C        -0.036790         0.123877        -0.099959
 C         1.452923        -0.132163         0.104101
 C         2.265633        -1.388285         0.055108
 C         3.162576        -0.148655         0.113845
 C         4.583476        -0.135676         0.551432
 O         4.446096         0.200546         1.968526
 C         3.098834        -0.088783         2.473716
 C         2.368847         0.515504         1.222814
 O         2.286457         0.539383        -0.952312
 H        -0.713194        -0.311778         0.593016
 H        -0.302970         1.245294        -0.008314
 H        -0.457967        -0.234775        -1.094925
 H         2.265307        -1.889597         1.029726
 H         2.302247        -2.059586        -0.815240
 H         5.020996        -1.090631         0.524322
 H         5.311515         0.521697        -0.006719
 H         3.008761        -1.137810         2.593022
 H         2.955270         0.430484         3.391568
 H         2.566211         1.586033         1.034328
