19
Iteration:  4022
 C        -0.131340         0.116366        -0.040276
 C         1.404930        -0.074032         0.128674
 C         2.236455        -1.380632        -0.042589
 C         3.164008        -0.195519         0.148885
 C         4.610172         0.050502         0.561656
 O         4.476471        -0.037153         2.014235
 C         3.104455        -0.032715         2.448906
 C         2.391974         0.524689         1.200773
 O         2.364086         0.478057        -0.996829
 H        -0.326961         0.328032        -1.098346
 H        -0.519648        -0.737541         0.427218
 H        -0.404799         1.062501         0.562018
 H         2.052593        -2.085026         0.799542
 H         2.254184        -1.664326        -1.078488
 H         5.394893        -0.623923         0.245255
 H         4.958190         1.081900         0.289435
 H         2.735919        -1.074185         2.889454
 H         3.070709         0.776206         3.230249
 H         2.395214         1.610222         1.134584
