19
Iteration:  2703
 C        -0.072066         0.210044         0.029692
 C         1.345797        -0.103189         0.149663
 C         2.280119        -1.366297         0.029423
 C         3.222597        -0.154737         0.018381
 C         4.632555        -0.132222         0.656613
 O         4.497125         0.137776         2.085970
 C         3.071178        -0.058424         2.396051
 C         2.432663         0.545775         1.092694
 O         2.244718         0.403621        -1.045220
 H        -0.663601        -0.474486         0.574559
 H        -0.342970         1.311597         0.321391
 H        -0.448432         0.212042        -0.950988
 H         2.363870        -2.085642         0.831093
 H         2.146896        -1.929065        -0.926518
 H         5.198498        -1.015489         0.421287
 H         5.179548         0.667996         0.196388
 H         2.900368        -1.082147         2.546305
 H         2.772351         0.648811         3.175724
 H         2.495509         1.631876         1.240474
