19
Iteration:   695charge 0 multiplicity 1
 C         0.015660        -0.048533        -0.117530
 C         1.408951        -0.103554         0.149737
 C         2.378818        -1.356551         0.083796
 C         3.205027         0.017981         0.065211
 C         4.681131         0.023021         0.463114
 O         4.302975        -0.438352         1.957381
 C         3.172937         0.289294         2.523620
 C         2.297955         0.654373         1.254968
 O         2.217867         0.510804        -0.969991
 H        -0.640593        -0.601681         0.762423
 H        -0.417712         0.867879        -0.012022
 H        -0.208622        -0.509082        -1.075264
 H         2.501664        -1.934497         0.994379
 H         2.455982        -1.749314        -0.952023
 H         5.338219        -0.681482        -0.047447
 H         4.995072         1.127816         0.619147
 H         2.526109        -0.334515         3.227988
 H         3.481533         1.112444         3.109423
 H         2.127565         1.655601         1.049535
