19
Iteration:  3953
 C        -0.165430         0.078034        -0.116569
 C         1.338612        -0.157223         0.178434
 C         2.297211        -1.312252         0.120280
 C         3.203476         0.014453         0.122482
 C         4.631703        -0.136113         0.495347
 O         4.516798        -0.032060         2.037786
 C         3.070547        -0.035143         2.347194
 C         2.321244         0.589027         1.241293
 O         2.360315         0.535461        -0.973971
 H        -0.249970         0.433849        -1.228616
 H        -0.729810        -0.899123         0.054271
 H        -0.455007         0.888723         0.487143
 H         2.340395        -1.977199         0.908202
 H         2.417835        -1.791964        -0.878872
 H         5.179438        -1.015278         0.267810
 H         5.241128         0.625301         0.025475
 H         2.888079        -1.219312         2.644993
 H         3.029576         0.559222         3.225951
 H         2.360876         1.694810         1.367230
