19
Iteration:  2013
 C        -0.160093        -0.000532         0.093444
 C         1.444031        -0.110508         0.155185
 C         2.334932        -1.361665         0.092197
 C         3.234841        -0.078983         0.041162
 C         4.619438         0.117572         0.564866
 O         4.367362        -0.351190         2.010298
 C         3.027748         0.153132         2.340768
 C         2.323138         0.682866         1.075160
 O         2.434676         0.486061        -1.024307
 H        -0.450442         0.150985         1.202560
 H        -0.343011         0.868089        -0.407312
 H        -0.465736        -0.954721        -0.238277
 H         2.409902        -1.865996         1.075134
 H         2.288233        -1.963886        -0.817902
 H         5.296483        -0.487739         0.039212
 H         5.048599         1.185753         0.608299
 H         2.434027        -0.653220         2.783101
 H         3.275263         0.747164         3.219698
 H         2.211471         1.819509         0.950419
