19
Iteration:  3594charge 0 multiplicity 1
 C        -0.066412         0.179547        -0.069671
 C         1.413311        -0.175501         0.209039
 C         2.237465        -1.391368         0.080453
 C         3.219118        -0.133929         0.081153
 C         4.624392        -0.008732         0.520020
 O         4.437174        -0.024120         1.994114
 C         3.136352         0.109780         2.379538
 C         2.362053         0.493828         1.231899
 O         2.274425         0.425932        -0.950941
 H        -0.513219         1.007459         0.455726
 H         0.028414         0.574812        -1.086580
 H        -0.745286        -0.568935        -0.313215
 H         2.218673        -2.244986         0.858056
 H         2.236971        -1.848600        -0.912122
 H         5.283639        -0.889254         0.342769
 H         5.081766         0.908653         0.195101
 H         2.938637        -0.880660         2.978582
 H         3.015903         0.926202         3.206359
 H         2.376514         1.535543         0.952613
