19
Iteration:  4478
 C        -0.035263        -0.041815        -0.052932
 C         1.398126        -0.009109         0.081891
 C         2.311757        -1.284243        -0.017396
 C         3.234214        -0.015486         0.046821
 C         4.687551         0.134681         0.619533
 O         4.420532        -0.360899         1.989521
 C         3.049206        -0.082520         2.400490
 C         2.408627         0.523553         1.225879
 O         2.198175         0.680468        -0.898148
 H        -0.462921         0.727219         0.539585
 H        -0.374042         0.280987        -1.023450
 H        -0.411326        -1.083471         0.135579
 H         2.436944        -1.967102         0.869812
 H         2.068066        -1.844697        -0.860335
 H         5.524305        -0.437379         0.173858
 H         4.813570         1.182337         0.500905
 H         2.644662        -1.091010         2.729730
 H         3.201019         0.635397         3.326200
 H         2.431725         1.618909         1.047313
