19
Iteration:  3755charge 0 multiplicity 1
 C        -0.135522         0.072352        -0.120246
 C         1.419032        -0.090280         0.085143
 C         2.283042        -1.290536         0.138212
 C         3.184626        -0.061907         0.134302
 C         4.601201         0.083939         0.588506
 O         4.486125        -0.262879         1.944411
 C         3.097233         0.004123         2.417166
 C         2.396467         0.585182         1.242162
 O         2.317262         0.476209        -1.010672
 H        -0.442757         0.342914        -1.164914
 H        -0.715861        -0.832937         0.361940
 H        -0.323570         0.903587         0.627641
 H         2.236573        -1.876955         1.076472
 H         2.450502        -1.855348        -0.735082
 H         5.291563        -0.640591         0.078639
 H         4.861385         1.225660         0.370005
 H         2.650283        -0.868294         2.761452
 H         3.040946         0.683061         3.245233
 H         2.371623         1.699245         1.163652
