19
Iteration:  4674
 C        -0.109809        -0.007094        -0.022346
 C         1.347991        -0.091305         0.209163
 C         2.283463        -1.287640        -0.114687
 C         3.230866         0.039298         0.087450
 C         4.599718         0.138668         0.514635
 O         4.454443        -0.239364         2.030259
 C         3.054337        -0.203117         2.378866
 C         2.361263         0.451273         1.254467
 O         2.408835         0.717128        -0.928682
 H        -0.305481         0.784983        -0.720021
 H        -0.425390        -0.913587        -0.564154
 H        -0.666881         0.294709         0.934896
 H         2.384531        -2.138181         0.612465
 H         2.186196        -1.745274        -1.034609
 H         5.297061        -0.668544         0.191847
 H         5.086594         1.170035         0.485289
 H         2.638867        -1.110507         2.649007
 H         3.117439         0.521387         3.216197
 H         2.089523         1.519294         1.467413
