19
Iteration:  3621
 C        -0.129909         0.158717        -0.054431
 C         1.410286        -0.091442        -0.027139
 C         2.200517        -1.415609         0.134117
 C         3.180407        -0.155987         0.109629
 C         4.611289        -0.102049         0.563643
 O         4.553259         0.111258         2.009701
 C         3.086100        -0.000514         2.421973
 C         2.337738         0.526756         1.207410
 O         2.346015         0.486482        -0.932411
 H        -0.412726         1.106755         0.522120
 H        -0.580458         0.254520        -1.091597
 H        -0.656323        -0.903159         0.363134
 H         2.313104        -2.091499         0.946409
 H         2.156265        -2.015508        -0.795022
 H         5.191830        -1.049339         0.293283
 H         5.197976         0.869951         0.104051
 H         3.016143        -1.036541         2.462056
 H         2.958669         0.519568         3.340023
 H         2.497410         1.587585         0.911545
