19
Iteration:   295charge 0 multiplicity 1
 C        -0.103681         0.152400        -0.097134
 C         1.374554        -0.042146         0.150310
 C         2.180397        -1.392401         0.064637
 C         3.260559        -0.186253         0.076702
 C         4.670930        -0.081088         0.587637
 O         4.401329         0.295561         1.981747
 C         3.120169        -0.126920         2.364743
 C         2.415182         0.460243         1.175755
 O         2.316064         0.427834        -0.876158
 H        -0.673477        -0.598582         0.580878
 H        -0.511102         1.110644         0.097293
 H        -0.178018        -0.097821        -1.149218
 H         2.158068        -1.957450         0.916316
 H         2.028465        -1.896797        -0.892004
 H         5.246548        -0.928953         0.419071
 H         5.325280         0.725784         0.171543
 H         3.039127        -1.228788         2.364610
 H         2.978111         0.227196         3.414527
 H         2.514377         1.513557         1.071695
