19
Iteration:  4832charge 0 multiplicity 1
 C        -0.087895         0.116251        -0.032626
 C         1.440314        -0.120626         0.027470
 C         2.224643        -1.363523        -0.075662
 C         3.139818        -0.109180         0.133303
 C         4.593717         0.075105         0.584913
 O         4.552157        -0.036334         2.038944
 C         3.097274        -0.209449         2.433234
 C         2.332254         0.398011         1.206530
 O         2.296606         0.727135        -0.921193
 H        -0.440549         0.808332         0.829798
 H        -0.468466         0.507736        -1.004211
 H        -0.302685        -0.970433         0.002754
 H         2.213987        -1.934592         0.796889
 H         2.352817        -1.905321        -1.042992
 H         5.302502        -0.772270         0.234075
 H         4.995925         1.121641         0.241903
 H         3.048344        -1.258439         2.476209
 H         2.905139         0.312875         3.382206
 H         2.355969         1.443808         1.427058
