19
Iteration:  2368
 C        -0.055931        -0.042238         0.076883
 C         1.405802        -0.038959         0.061520
 C         2.191855        -1.274241         0.104048
 C         3.252863        -0.160440         0.043334
 C         4.732991        -0.241070         0.628826
 O         4.446418         0.011418         2.092898
 C         3.055175         0.131999         2.386659
 C         2.438932         0.624036         1.081640
 O         2.243098         0.521909        -1.091172
 H        -0.696733        -0.772314         0.693865
 H        -0.762096         0.929393         0.158133
 H        -0.480645        -0.305111        -0.938748
 H         2.098348        -1.985605         0.948651
 H         2.262847        -1.718543        -0.885343
 H         5.176030        -1.220016         0.547169
 H         5.386519         0.689711         0.359310
 H         2.719920        -0.820069         2.825407
 H         2.935959         0.844169         3.127985
 H         2.495508         1.679218         1.088868
