19
Iteration:  3753
 C        -0.138365         0.085250        -0.122806
 C         1.425894        -0.086700         0.076303
 C         2.273595        -1.305864         0.148009
 C         3.182968        -0.052033         0.145394
 C         4.594142         0.097710         0.573976
 O         4.490094        -0.262432         1.941914
 C         3.087969         0.007677         2.408767
 C         2.401656         0.580816         1.243579
 O         2.322102         0.471232        -0.998726
 H        -0.438232         0.298601        -1.125385
 H        -0.599582        -0.860503         0.292768
 H        -0.317524         0.893492         0.665770
 H         2.217679        -1.907448         1.039475
 H         2.379031        -1.870081        -0.729958
 H         5.333097        -0.641074         0.111746
 H         4.884116         1.204089         0.368116
 H         2.641678        -0.875827         2.771785
 H         3.034948         0.636251         3.256005
 H         2.362773         1.688958         1.128030
