19
Iteration:  1623
 C        -0.111437         0.143444        -0.200702
 C         1.392753        -0.184534         0.187730
 C         2.226332        -1.425505        -0.005236
 C         3.128100        -0.218652         0.155317
 C         4.580760        -0.054963         0.559330
 O         4.562339         0.141863         1.934533
 C         3.144412         0.053209         2.412518
 C         2.245016         0.482163         1.324674
 O         2.413280         0.513490        -0.877908
 H        -0.951541        -0.546303         0.186298
 H        -0.308001         1.113529         0.114390
 H        -0.291436         0.370992        -1.225228
 H         2.254617        -2.173869         0.824713
 H         2.156040        -1.885180        -1.014007
 H         5.153137        -1.060055         0.388132
 H         5.032543         0.718525        -0.060099
 H         3.076887        -1.005063         2.923763
 H         3.065262         0.742566         3.333655
 H         2.360854         1.538731         0.977839
