19
Iteration:  4913
 C        -0.243927         0.040716        -0.109013
 C         1.409359        -0.038871         0.133980
 C         2.325518        -1.276057        -0.166614
 C         3.223542        -0.072722         0.126841
 C         4.642466         0.059401         0.560887
 O         4.579036        -0.051190         1.993238
 C         3.034601        -0.278749         2.429000
 C         2.327550         0.431721         1.268238
 O         2.313217         0.693270        -0.812119
 H        -0.645682         0.919044        -0.500508
 H        -0.465458        -0.732212        -0.853755
 H        -0.894297         0.031121         0.767345
 H         2.443292        -2.041021         0.663555
 H         2.436201        -1.631491        -1.183041
 H         5.171082        -0.785337         0.149565
 H         5.177246         0.987040         0.234506
 H         2.912629        -1.339157         2.703487
 H         2.988472         0.270126         3.359900
 H         2.399608         1.509036         1.400063
