19
Iteration:  4120charge 0 multiplicity 1
 C        -0.226801        -0.004157        -0.062650
 C         1.445286        -0.110610         0.155328
 C         2.323396        -1.385822         0.001210
 C         3.216702        -0.034873         0.060602
 C         4.626182         0.043080         0.529151
 O         4.457706        -0.290280         1.963801
 C         3.041607         0.038810         2.473369
 C         2.322219         0.577290         1.225138
 O         2.425788         0.671415        -0.920486
 H        -0.575111        -1.029650        -0.067798
 H        -0.729266         0.602408         0.670688
 H        -0.348569         0.490553        -1.116103
 H         2.354746        -2.045318         0.889968
 H         2.303927        -1.880313        -0.913103
 H         5.255304        -0.563643        -0.031482
 H         5.110343         1.007755         0.415474
 H         2.490993        -0.775001         3.094486
 H         3.079459         0.786663         3.205307
 H         2.368960         1.658069         1.126783
