19
Iteration:  3306charge 0 multiplicity 1
 C        -0.071747         0.171258         0.029377
 C         1.415040        -0.062958         0.168471
 C         2.255665        -1.406192         0.048751
 C         3.231070        -0.176934         0.065664
 C         4.680093        -0.022344         0.524982
 O         4.402286         0.047110         1.978828
 C         2.986483         0.016488         2.361365
 C         2.395239         0.505843         1.179529
 O         2.350240         0.420120        -0.938217
 H        -0.660128         0.320305         0.931234
 H        -0.270443         1.025236        -0.551825
 H        -0.422338        -0.717463        -0.570601
 H         2.417291        -1.940992         1.015275
 H         2.057863        -1.984652        -0.911757
 H         5.361017        -0.826710         0.373312
 H         5.144305         0.883250        -0.034110
 H         2.732456        -1.056383         2.745727
 H         2.959999         0.719409         3.240274
 H         2.362681         1.637316         1.127392
