19
Iteration:  3209charge 0 multiplicity 1
 C        -0.160732        -0.005048        -0.060240
 C         1.397080        -0.065972         0.164825
 C         2.269482        -1.298577         0.187374
 C         3.153846        -0.075460         0.058965
 C         4.659603        -0.052046         0.561389
 O         4.388512        -0.206299         1.939411
 C         3.099577         0.152271         2.377740
 C         2.391825         0.634680         1.197782
 O         2.404022         0.471046        -1.012511
 H        -0.642889        -0.950086         0.340095
 H        -0.654148         0.811115         0.496968
 H        -0.299891        -0.101159        -1.216396
 H         2.391261        -1.621409         1.154122
 H         2.068740        -1.829423        -0.743771
 H         5.253678        -0.864007         0.192602
 H         5.263807         0.809859         0.361787
 H         2.915398        -0.802878         2.962407
 H         3.285219         0.935494         3.095467
 H         2.433598         1.731868         1.219462
