19
Iteration:  2190charge 0 multiplicity 1
 C        -0.109603         0.091849         0.063624
 C         1.397460        -0.085702         0.153973
 C         2.207241        -1.371932        -0.022588
 C         3.198529        -0.156602        -0.003291
 C         4.676463        -0.204880         0.612269
 O         4.458303         0.234433         2.088928
 C         3.053903         0.021424         2.396081
 C         2.392320         0.506565         1.124780
 O         2.353966         0.446858        -1.012425
 H        -0.412528        -0.062942         1.107021
 H        -0.483126         1.147368        -0.295072
 H        -0.601832        -0.556423        -0.779050
 H         2.169826        -2.126436         0.800845
 H         2.316888        -1.747321        -1.088104
 H         5.164985        -1.154137         0.685490
 H         5.408916         0.583281         0.147262
 H         2.798046        -1.045945         2.560963
 H         2.894834         0.675069         3.238149
 H         2.378373         1.623372         1.052723
