19
Iteration:  2489charge 0 multiplicity 1
 C        -0.032911         0.042056        -0.091347
 C         1.399247        -0.091247         0.134793
 C         2.208970        -1.328048         0.156200
 C         3.171954        -0.120840         0.110229
 C         4.578294        -0.152072         0.522880
 O         4.490258        -0.020022         1.930345
 C         3.053791         0.087291         2.433924
 C         2.283321         0.576512         1.207635
 O         2.416458         0.528705        -0.993380
 H        -0.428798        -0.599017         0.764671
 H        -0.303950         1.124895        -0.006070
 H        -0.409698        -0.349648        -1.030013
 H         2.304864        -1.815633         1.095868
 H         2.167398        -1.967664        -0.741599
 H         5.189869        -1.026029         0.411806
 H         5.032996         0.821947         0.126413
 H         2.807867        -0.947828         2.875288
 H         3.221770         0.678802         3.276361
 H         2.383770         1.618644         1.091361
