19
Iteration:   304
 C        -0.044237         0.204409        -0.065358
 C         1.387263        -0.074896         0.115321
 C         2.192845        -1.424430         0.075352
 C         3.182577        -0.186352         0.112847
 C         4.696729        -0.019923         0.572084
 O         4.427129         0.289563         1.938410
 C         3.093064        -0.169832         2.421029
 C         2.381344         0.420160         1.215060
 O         2.325567         0.441150        -0.957607
 H        -0.808632        -0.576596         0.348878
 H        -0.315474         1.143961         0.161071
 H        -0.192638         0.093345        -1.087237
 H         2.112242        -2.075187         0.975888
 H         2.030019        -2.056014        -0.854799
 H         5.280347        -0.937974         0.597772
 H         5.111449         0.873343         0.090488
 H         3.117188        -1.266995         2.746931
 H         2.962935         0.494874         3.254743
 H         2.409486         1.473344         1.267909
