19
Iteration:  3465charge 0 multiplicity 1
 C        -0.161581         0.095663        -0.001828
 C         1.408195        -0.027556         0.069998
 C         2.286182        -1.458603         0.098979
 C         3.158650        -0.177535         0.099667
 C         4.619431        -0.015684         0.577174
 O         4.433446        -0.164841         2.006457
 C         3.092403         0.253053         2.413743
 C         2.445877         0.635428         1.155581
 O         2.345939         0.378874        -0.985145
 H        -0.712391        -0.898529         0.117771
 H        -0.451151         0.949839         0.708222
 H        -0.557621         0.296769        -1.073264
 H         2.354593        -2.135599         0.962443
 H         2.269259        -1.835007        -0.882025
 H         5.402725        -0.742455         0.167976
 H         5.081930         0.963295         0.418075
 H         2.700073        -0.571710         2.872500
 H         3.375018         1.048165         3.088800
 H         2.302559         1.671823         0.871583
