19
Iteration:  2170
 C        -0.060306         0.167043        -0.005657
 C         1.393431        -0.196098         0.099057
 C         2.295823        -1.445843         0.069206
 C         3.190650        -0.225717         0.154117
 C         4.604329        -0.108809         0.586589
 O         4.451548         0.199769         1.911002
 C         3.057111         0.017361         2.429080
 C         2.316298         0.522995         1.164128
 O         2.391249         0.509653        -0.947443
 H        -0.618569        -0.210129         0.847318
 H        -0.204659         1.352387        -0.020479
 H        -0.501367        -0.111834        -1.051496
 H         2.244527        -2.052865         0.969163
 H         2.129944        -2.001058        -0.868444
 H         5.047317        -1.130759         0.337332
 H         5.258368         0.684291        -0.012876
 H         2.837072        -1.094476         2.652226
 H         2.882972         0.698014         3.262787
 H         2.300326         1.587429         1.061829
