19
Iteration:   290charge 0 multiplicity 1
 C        -0.132004         0.108697        -0.120441
 C         1.402122        -0.065546         0.189317
 C         2.173034        -1.356276         0.061798
 C         3.251148        -0.220314         0.059115
 C         4.645136        -0.093624         0.591161
 O         4.439270         0.290687         2.015725
 C         3.129849        -0.091157         2.349768
 C         2.402666         0.499450         1.157111
 O         2.317278         0.462831        -0.873336
 H        -0.551096        -0.574653         0.616066
 H        -0.545067         1.166763         0.058671
 H        -0.368152        -0.206766        -1.168526
 H         2.169445        -2.132003         0.973931
 H         2.118433        -1.857830        -0.938583
 H         5.224712        -1.099977         0.385288
 H         5.337739         0.638369         0.203395
 H         2.951007        -1.209816         2.190867
 H         2.904429         0.082618         3.395182
 H         2.614449         1.614969         1.109219
