19
Iteration:   568
 C        -0.001177         0.103659        -0.093023
 C         1.380180        -0.181836         0.055090
 C         2.239568        -1.422577        -0.150026
 C         3.129025        -0.253266         0.094720
 C         4.537317        -0.161145         0.584502
 O         4.545461         0.291430         1.945657
 C         3.123554         0.025447         2.494947
 C         2.281186         0.425256         1.306594
 O         2.324051         0.594516        -0.800479
 H        -0.560415        -0.352501         0.661016
 H        -0.069837         1.272737        -0.105687
 H        -0.454839        -0.213386        -1.094628
 H         2.184676        -2.200222         0.630502
 H         2.368641        -1.871644        -1.156945
 H         5.033542        -1.152862         0.444837
 H         5.060089         0.394830        -0.071767
 H         3.041674        -0.946481         2.921245
 H         3.029497         0.800458         3.335234
 H         2.602014         1.516342         1.158148
