19
Iteration:  1178charge 0 multiplicity 1
 C        -0.143790         0.028215        -0.166226
 C         1.291628        -0.079998         0.178595
 C         2.273245        -1.341550         0.079119
 C         3.272238        -0.151842         0.120454
 C         4.705998         0.058911         0.565662
 O         4.489293        -0.237442         1.979124
 C         3.116540         0.091143         2.469755
 C         2.369103         0.593525         1.162923
 O         2.231351         0.541763        -0.945597
 H        -0.770841        -0.041337         0.745854
 H        -0.164618         1.064334        -0.818261
 H        -0.283053        -0.803617        -0.859899
 H         2.343331        -1.964172         1.048441
 H         2.279718        -1.928707        -0.859519
 H         5.581529        -0.562140         0.377351
 H         4.997279         1.108524         0.345076
 H         2.691422        -0.869146         2.913020
 H         3.239652         0.856709         3.244148
 H         2.356339         1.720417         0.958140
