19
Iteration:  1638
 C        -0.111170         0.168360        -0.204797
 C         1.281283        -0.150013         0.091714
 C         2.180484        -1.446348         0.015789
 C         3.139591        -0.185467         0.126332
 C         4.546954        -0.055827         0.517208
 O         4.570153         0.127877         2.042252
 C         3.247620         0.048543         2.593518
 C         2.395883         0.470707         1.188188
 O         2.344325         0.485583        -0.933112
 H        -0.683786        -0.644129         0.053868
 H        -0.584771         1.031771         0.385673
 H        -0.179000         0.064295        -1.327377
 H         2.103619        -2.161149         0.856631
 H         2.297936        -1.945690        -0.961482
 H         5.229020        -0.763563         0.206785
 H         4.993877         0.949603         0.199664
 H         2.896281        -0.952103         2.791135
 H         3.200447         0.696211         3.423981
 H         2.354998         1.550689         1.246297
