19
Iteration:  2053charge 0 multiplicity 1
 C        -0.052995        -0.048416         0.092137
 C         1.410382        -0.093526         0.069906
 C         2.380200        -1.339260        -0.011672
 C         3.248188        -0.019541         0.107510
 C         4.687026        -0.073579         0.619034
 O         4.389225        -0.282804         2.033206
 C         2.999318         0.230578         2.385782
 C         2.405495         0.685187         1.140234
 O         2.229563         0.505336        -1.039028
 H        -0.495991        -0.381024         1.075684
 H        -0.516785         0.975229        -0.121325
 H        -0.580910        -0.676048        -0.628985
 H         2.578183        -2.000750         0.876285
 H         2.202647        -1.946444        -0.921337
 H         5.399552        -0.951723         0.377319
 H         5.137606         0.902284         0.423279
 H         2.383287        -0.614703         2.723780
 H         3.128652         1.097645         3.082838
 H         2.355655         1.770189         0.919000
