19
Iteration:  4375charge 0 multiplicity 1
 C        -0.010263         0.016303        -0.095472
 C         1.389363        -0.061385         0.075558
 C         2.245765        -1.264309        -0.071603
 C         3.188664        -0.007789         0.077526
 C         4.563988         0.127912         0.584091
 O         4.489615        -0.248739         2.027465
 C         3.077293        -0.203112         2.418833
 C         2.285691         0.459941         1.321160
 O         2.343642         0.684986        -0.932377
 H        -0.331484         1.032902        -0.599061
 H        -0.426901        -0.958179        -0.480465
 H        -0.376796         0.320719         0.920813
 H         2.506914        -1.822605         0.729425
 H         2.437605        -1.875780        -0.994696
 H         5.261900        -0.474169         0.010628
 H         4.775306         1.177354         0.247446
 H         2.918178        -1.260549         2.721878
 H         3.084307         0.346776         3.407941
 H         2.355603         1.559418         1.347116
