19
Iteration:  2624charge 0 multiplicity 1
 C        -0.060965         0.090314        -0.271827
 C         1.331645        -0.068179         0.114004
 C         2.251547        -1.391436         0.183239
 C         3.235652        -0.113911         0.204805
 C         4.664239         0.007696         0.497089
 O         4.502871        -0.175270         1.939613
 C         3.088980         0.091696         2.404309
 C         2.438919         0.587510         1.199975
 O         2.226957         0.488898        -0.856803
 H        -0.619592         0.346988         0.701644
 H        -0.476791         1.006299        -0.766947
 H        -0.574974        -0.890536        -0.642355
 H         2.252758        -2.177679         0.944536
 H         2.267402        -1.752674        -0.813610
 H         5.123685        -0.913040         0.186364
 H         5.116480         1.055533         0.369175
 H         2.701510        -0.847414         2.766606
 H         3.026526         0.813997         3.329835
 H         2.532781         1.728649         1.174454
