19
Iteration:   340
 C        -0.098251         0.287713        -0.103416
 C         1.362974        -0.239188         0.090275
 C         2.298131        -1.525758        -0.019596
 C         3.187165        -0.230605         0.212123
 C         4.593548         0.088680         0.549077
 O         4.498215         0.092049         1.930906
 C         3.128324         0.033290         2.446544
 C         2.307909         0.453581         1.226783
 O         2.320418         0.417727        -0.872140
 H        -0.842418        -0.247267         0.421255
 H        -0.140882         1.347321         0.261110
 H        -0.256122         0.222184        -1.212876
 H         2.267050        -2.207455         0.754268
 H         2.470550        -1.845269        -1.022812
 H         5.313175        -0.589301         0.227626
 H         4.992586         1.027120         0.088752
 H         2.841085        -0.880784         2.923149
 H         2.979613         0.876213         3.203398
 H         2.343869         1.557387         1.151040
