19
Iteration:  4752
 C        -0.121830        -0.010768        -0.077819
 C         1.379716        -0.029941         0.115078
 C         2.403850        -1.323415        -0.020712
 C         3.193648         0.004896         0.179120
 C         4.573203         0.180062         0.489671
 O         4.437840        -0.400183         1.942446
 C         3.077060        -0.067387         2.401071
 C         2.316544         0.580858         1.219742
 O         2.326731         0.640599        -0.845227
 H        -0.535096         0.786492         0.592299
 H        -0.229382        -0.153411        -1.178264
 H        -0.454903        -0.953715         0.435030
 H         2.299230        -2.206833         0.623792
 H         2.449426        -1.500258        -1.050956
 H         5.323995        -0.522292        -0.092447
 H         5.023984         1.194893         0.631533
 H         2.660538        -0.905098         2.816213
 H         3.243743         0.533210         3.350424
 H         2.539948         1.702835         1.196581
