19
Iteration:   107
 C        -0.119366        -0.065673        -0.123103
 C         1.354630        -0.035363         0.060467
 C         2.229068        -1.308689         0.004445
 C         3.217703        -0.105951         0.108712
 C         4.637692        -0.203707         0.581098
 O         4.499439         0.118339         2.002529
 C         3.118209         0.003773         2.517048
 C         2.365427         0.538300         1.185337
 O         2.343035         0.580449        -0.946587
 H        -0.626195        -0.595154         0.858219
 H        -0.587326         0.895271        -0.101744
 H        -0.492577        -0.561083        -0.982638
 H         2.209217        -2.067200         0.818874
 H         2.067905        -1.809016        -0.923172
 H         5.224676        -1.090091         0.291484
 H         5.254203         0.632359         0.139531
 H         2.888861        -0.959790         3.048082
 H         3.010480         0.744369         3.290438
 H         2.360012         1.606701         1.208407
