19
Iteration:  3153
 C        -0.101268         0.156928         0.048599
 C         1.348011        -0.143979         0.182573
 C         2.366448        -1.364572         0.088516
 C         3.214563        -0.131559         0.023491
 C         4.668461         0.031451         0.515755
 O         4.356732        -0.205739         2.043670
 C         3.033915         0.141631         2.409725
 C         2.469347         0.565647         1.140851
 O         2.302414         0.470464        -1.044924
 H        -0.684455        -0.344013         0.894984
 H        -0.300822         1.179360        -0.121568
 H        -0.615902        -0.368588        -0.872607
 H         2.567376        -2.122557         0.796647
 H         2.330370        -1.874551        -0.857869
 H         5.290409        -0.786732         0.339711
 H         5.074989         1.023515         0.311369
 H         2.731809        -0.790350         2.951278
 H         3.042954         0.920538         3.170604
 H         2.445648         1.691845         1.043074
