19
Iteration:   158
 C        -0.047632         0.056880        -0.027516
 C         1.376578        -0.136471         0.188522
 C         2.360758        -1.369065         0.045564
 C         3.221776        -0.025510         0.046232
 C         4.632565         0.061429         0.564800
 O         4.374056        -0.240560         1.951057
 C         3.085250         0.186547         2.466069
 C         2.325699         0.544272         1.207896
 O         2.322311         0.458448        -1.001376
 H        -0.683562        -0.532146         0.647070
 H        -0.381211         1.147210         0.132842
 H        -0.313383        -0.422687        -1.032278
 H         2.329023        -2.042194         0.992410
 H         2.383873        -1.842952        -0.965268
 H         5.290806        -0.810727         0.168024
 H         5.205638         0.942468         0.268845
 H         2.641599        -0.694200         2.999503
 H         3.137044         1.083184         3.140579
 H         2.211810         1.698792         1.104948
