19
Iteration:  3157
 C        -0.076219         0.138484         0.046205
 C         1.378039        -0.119559         0.190634
 C         2.349928        -1.364069         0.070161
 C         3.196853        -0.115531         0.012644
 C         4.662658         0.047026         0.558626
 O         4.349084        -0.207961         2.026937
 C         3.054480         0.136689         2.415041
 C         2.466490         0.565289         1.107329
 O         2.277234         0.443138        -1.030559
 H        -0.627901        -0.393392         0.820416
 H        -0.302733         1.271903         0.025208
 H        -0.523036        -0.346679        -0.839464
 H         2.480760        -2.107614         0.924354
 H         2.330508        -1.742283        -1.023020
 H         5.376585        -0.927542         0.518531
 H         5.158490         1.030383         0.260510
 H         2.663663        -0.717840         2.911088
 H         3.120514         0.928698         3.163455
 H         2.336316         1.611212         1.037844
