19
Iteration:  1763charge 0 multiplicity 1
 C        -0.005016        -0.033089        -0.038417
 C         1.418028        -0.125516         0.169640
 C         2.321752        -1.287045         0.121600
 C         3.207007        -0.007769         0.079042
 C         4.599225         0.072341         0.570505
 O         4.373111        -0.373371         1.924578
 C         3.079337         0.177961         2.407124
 C         2.219408         0.648009         1.207765
 O         2.388530         0.494637        -1.007811
 H        -0.425564         0.248617         1.037384
 H        -0.221150         0.703946        -0.770923
 H        -0.421361        -0.969114        -0.408621
 H         2.377278        -2.017299         0.925798
 H         2.270512        -1.956687        -0.738343
 H         5.234738        -0.704456        -0.056203
 H         5.075896         1.050964         0.302033
 H         2.729102        -0.558944         3.036716
 H         3.211185         1.004648         3.149952
 H         2.328231         1.747699         1.195183
