19
Iteration:  4722
 C        -0.012557        -0.002303        -0.055756
 C         1.369290        -0.126358         0.180078
 C         2.370808        -1.279254         0.015829
 C         3.251688         0.090910        -0.004221
 C         4.639174         0.175785         0.576468
 O         4.380671        -0.390247         1.953274
 C         3.083718        -0.113218         2.462798
 C         2.317077         0.452874         1.235513
 O         2.225178         0.719818        -0.967253
 H        -0.334948         1.114631        -0.147718
 H        -0.217491        -0.507333        -1.023675
 H        -0.538278        -0.328641         0.829196
 H         2.399143        -1.987820         0.786520
 H         2.259028        -1.912826        -0.922941
 H         5.376936        -0.570587         0.098861
 H         5.085163         1.198671         0.706151
 H         2.886954        -1.079549         2.977281
 H         3.233686         0.721562         3.227444
 H         2.343191         1.531556         1.312206
