19
Iteration:   426
 C        -0.043663        -0.127180        -0.001056
 C         1.445657        -0.163983         0.163129
 C         2.390108        -1.224444         0.145587
 C         3.229464         0.044183         0.023827
 C         4.594336        -0.030637         0.639753
 O         4.290284        -0.396352         1.969761
 C         3.097002         0.174508         2.363558
 C         2.374171         0.709827         1.103065
 O         2.276667         0.593047        -1.009055
 H        -0.399585        -0.284494         1.055896
 H        -0.401420         0.826554        -0.379908
 H        -0.465355        -0.936545        -0.622317
 H         2.749735        -1.892453         0.923275
 H         2.222062        -1.861894        -0.758240
 H         5.292245        -0.781380         0.279782
 H         5.187446         0.989336         0.561165
 H         2.591480        -0.702180         2.820291
 H         3.259908         0.990027         3.199204
 H         2.265505         1.751253         0.842435
