19
Iteration:  2009charge 0 multiplicity 1
 C        -0.144099         0.019714         0.082924
 C         1.402744        -0.101120         0.162973
 C         2.363472        -1.347236         0.123172
 C         3.238694        -0.084356         0.050467
 C         4.620215         0.150808         0.525852
 O         4.353889        -0.344903         2.005840
 C         3.045008         0.120932         2.348739
 C         2.307172         0.700778         1.094408
 O         2.450598         0.457602        -1.011636
 H        -0.504035         0.121646         1.140612
 H        -0.513264         0.947745        -0.553160
 H        -0.569532        -0.957245        -0.293231
 H         2.352682        -1.979096         1.053759
 H         2.401447        -1.890808        -0.844866
 H         5.291995        -0.667137        -0.009080
 H         5.075411         1.143436         0.657647
 H         2.601661        -0.796290         2.716982
 H         3.290791         0.814776         3.192033
 H         2.129460         1.774048         0.916952
