19
Iteration:  3693charge 0 multiplicity 1
 C        -0.150218         0.142347        -0.124832
 C         1.385658        -0.108995         0.050199
 C         2.315628        -1.370039         0.018867
 C         3.217083        -0.144897         0.170152
 C         4.722101        -0.079038         0.538248
 O         4.558223        -0.001869         2.004400
 C         3.065385         0.032327         2.444511
 C         2.310862         0.511291         1.290681
 O         2.216126         0.516464        -0.967664
 H        -0.368506         0.966044        -0.846635
 H        -0.808055        -0.692062        -0.353681
 H        -0.516808         0.503627         0.770913
 H         2.144655        -2.088883         0.888738
 H         2.359787        -1.884090        -1.004660
 H         5.230416        -1.013981         0.497729
 H         5.354039         0.649895         0.195918
 H         2.837617        -1.093470         2.656403
 H         3.182584         0.863810         3.212359
 H         2.222574         1.599044         1.293910
