19
Iteration:  2518charge 0 multiplicity 1
 C        -0.108868        -0.013576         0.007848
 C         1.391780        -0.088441         0.157904
 C         2.308220        -1.281394         0.063132
 C         3.254726        -0.031569         0.088202
 C         4.684506        -0.191924         0.587912
 O         4.448680        -0.144094         2.078495
 C         2.995132         0.171344         2.361547
 C         2.405117         0.669094         1.044849
 O         2.228277         0.485505        -0.999229
 H        -0.522173        -0.755324         0.620290
 H        -0.463936         0.987890         0.386642
 H        -0.534272        -0.115045        -0.958851
 H         2.578093        -2.076863         0.839749
 H         2.219144        -1.740154        -0.953431
 H         5.321391        -1.152453         0.456592
 H         5.429701         0.531860         0.417763
 H         2.531102        -0.780714         2.708197
 H         3.189498         0.926875         3.128806
 H         2.671698         1.747442         0.900914
