19
Iteration:   267charge 0 multiplicity 1
 C        -0.107050        -0.028919        -0.040525
 C         1.378191        -0.095420         0.079630
 C         2.208932        -1.351300        -0.031349
 C         3.170691        -0.067486         0.150508
 C         4.604675        -0.208656         0.623030
 O         4.552376         0.165659         1.997161
 C         3.121930         0.009425         2.456871
 C         2.314805         0.519781         1.201737
 O         2.345530         0.576629        -0.987391
 H        -0.582166        -0.419826         0.794615
 H        -0.455042         1.073553        -0.303985
 H        -0.248797        -0.610202        -1.023618
 H         2.195593        -2.026892         0.929174
 H         2.202523        -1.870582        -1.007124
 H         5.064181        -1.239511         0.321741
 H         5.307756         0.450069         0.094351
 H         2.870454        -1.044528         2.734471
 H         3.060181         0.652544         3.362823
 H         2.339614         1.680643         1.216049
