19
Iteration:  2879
 C         0.052819         0.065398         0.031554
 C         1.470588        -0.078197         0.162546
 C         2.353078        -1.320079         0.116403
 C         3.174930        -0.026420        -0.014157
 C         4.577476         0.015066         0.549010
 O         4.377669        -0.261317         1.979699
 C         3.020486         0.076244         2.431773
 C         2.324410         0.648681         1.181474
 O         2.304896         0.421271        -1.055836
 H        -0.550846         0.351542         0.897132
 H        -0.113126         0.997566        -0.523990
 H        -0.526003        -0.727187        -0.407431
 H         2.553084        -1.912764         0.999994
 H         2.225905        -1.835429        -0.819051
 H         5.229652        -0.862996         0.260428
 H         5.033536         1.011382         0.440847
 H         2.644746        -0.899846         2.976849
 H         2.994123         0.817439         3.263624
 H         2.325696         1.760565         1.170893
