19
Iteration:  1924charge 0 multiplicity 1
 C        -0.045407         0.081882        -0.125803
 C         1.380290        -0.111757         0.021375
 C         2.120266        -1.387382         0.051817
 C         3.123795        -0.215098         0.192431
 C         4.547301        -0.141922         0.562084
 O         4.551730         0.180480         1.983348
 C         3.204027         0.030474         2.424993
 C         2.344730         0.475438         1.281218
 O         2.403621         0.545248        -0.969619
 H        -0.687140        -0.708049         0.378624
 H        -0.474599         0.912530         0.451651
 H        -0.355245         0.053660        -1.159027
 H         2.021821        -2.130727         0.902117
 H         2.260414        -1.998426        -0.868114
 H         5.088075        -0.935108         0.099491
 H         5.029132         0.765831         0.149008
 H         2.880292        -0.908746         2.957281
 H         3.036587         0.773052         3.285620
 H         2.247721         1.629737         1.237770
