19
Iteration:   914
 C         0.013142        -0.017121         0.033414
 C         1.440427        -0.099366         0.145938
 C         2.281672        -1.278359         0.099316
 C         3.216781        -0.084493         0.015140
 C         4.608622         0.059705         0.547105
 O         4.379317        -0.276586         2.027982
 C         3.023176         0.103851         2.392443
 C         2.347042         0.605085         1.106617
 O         2.310376         0.561373        -0.992751
 H        -0.323356        -0.709477         0.909880
 H        -0.317947         0.919602         0.227856
 H        -0.449116        -0.457189        -0.888913
 H         2.366686        -2.101866         0.902814
 H         2.302111        -1.831815        -0.857039
 H         5.393005        -0.609798         0.235314
 H         4.992212         1.115514         0.438231
 H         2.635314        -0.939039         2.661683
 H         3.007031         0.796731         3.256476
 H         2.609181         1.625113         1.018806
