19
Iteration:  4696
 C        -0.099395         0.034888        -0.044465
 C         1.331361        -0.133794         0.073243
 C         2.445840        -1.260489        -0.071926
 C         3.222829         0.015463         0.123441
 C         4.611931         0.078776         0.596877
 O         4.495181        -0.332597         1.897790
 C         2.988525        -0.088919         2.438401
 C         2.292749         0.556178         1.272964
 O         2.306059         0.670131        -0.857424
 H        -0.388581         0.931609        -0.562460
 H        -0.572088        -0.766578        -0.657909
 H        -0.490115         0.031268         1.034040
 H         2.447300        -2.144485         0.633253
 H         2.537395        -1.715698        -0.989872
 H         5.382298        -0.506509         0.033668
 H         4.883022         1.190608         0.625967
 H         2.735177        -1.080992         2.506175
 H         3.291077         0.381851         3.389888
 H         2.251762         1.688506         1.232184
