19
Iteration:  3923
 C        -0.069551         0.034952        -0.121474
 C         1.450592        -0.039843         0.089504
 C         2.171066        -1.380944         0.006400
 C         3.229123        -0.190735         0.046694
 C         4.614292        -0.021239         0.523129
 O         4.422603        -0.047850         1.993344
 C         3.088283        -0.007116         2.468628
 C         2.415271         0.581111         1.280677
 O         2.305812         0.561798        -0.896182
 H        -0.313699        -0.084759        -1.220575
 H        -0.470250        -0.652366         0.594228
 H        -0.378113         0.992648         0.252641
 H         2.177088        -2.035182         0.910377
 H         2.003444        -1.873751        -1.011252
 H         5.387490        -0.770990         0.411117
 H         4.792683         1.047850         0.144699
 H         2.855190        -0.951778         2.781417
 H         3.222474         0.616818         3.331592
 H         2.702910         1.612844         1.280901
