19
Iteration:  4202
 C        -0.027740         0.033446        -0.093974
 C         1.431926        -0.080651         0.203202
 C         2.200218        -1.305548        -0.062219
 C         3.224449        -0.042603         0.113707
 C         4.622970         0.151494         0.543156
 O         4.444486        -0.226994         1.944853
 C         3.024440        -0.097073         2.523111
 C         2.325915         0.477772         1.277652
 O         2.377230         0.602306        -0.977272
 H        -0.472981         0.177507         0.938878
 H        -0.347506         0.917417        -0.628840
 H        -0.392002        -0.851360        -0.472336
 H         2.346538        -2.189796         0.587799
 H         2.462613        -1.585883        -1.162219
 H         5.241346        -0.726218         0.107132
 H         4.962188         1.179278         0.491502
 H         2.683534        -1.068737         2.683909
 H         3.039372         0.763392         3.327046
 H         2.129778         1.572021         1.143967
