19
Iteration:  2117charge 0 multiplicity 1
 C        -0.121660         0.116873        -0.253230
 C         1.329959        -0.133226         0.169490
 C         2.150448        -1.405231         0.186242
 C         3.140656        -0.206716         0.167196
 C         4.621030         0.108485         0.451022
 O         4.579391        -0.041682         2.034363
 C         3.174772         0.064505         2.384540
 C         2.418164         0.593519         1.220632
 O         2.318996         0.386436        -0.891151
 H        -0.624913        -0.695408         0.098380
 H        -0.642066         1.101918        -0.066717
 H        -0.005644         0.268117        -1.314312
 H         2.183428        -1.998097         1.090125
 H         1.991363        -1.943629        -0.735186
 H         5.394920        -0.605762        -0.021782
 H         4.836052         1.158328         0.323081
 H         2.875466        -1.023592         2.635871
 H         2.966215         0.750799         3.254715
 H         2.519283         1.643646         1.094713
