19
Iteration:  4731charge 0 multiplicity 1
 C        -0.084830        -0.009521        -0.065659
 C         1.427237        -0.144226         0.217817
 C         2.349993        -1.269028        -0.034546
 C         3.190986         0.046972         0.015366
 C         4.622235         0.124227         0.637679
 O         4.445229        -0.384160         1.868234
 C         3.057203        -0.066832         2.457473
 C         2.346478         0.506493         1.234663
 O         2.285564         0.698263        -0.927989
 H        -0.280353         1.099449         0.068695
 H        -0.230489        -0.446368        -1.084373
 H        -0.727393        -0.589820         0.650000
 H         2.511379        -1.817461         0.850137
 H         2.231344        -1.753277        -0.966539
 H         5.555041        -0.456094         0.196378
 H         4.928576         1.242420         0.693471
 H         2.547978        -0.885335         2.842844
 H         3.243865         0.579213         3.371713
 H         2.039665         1.575825         1.326987
