19
Iteration:  1263charge 0 multiplicity 1
 C         0.007366        -0.039954         0.004687
 C         1.487597         0.031560         0.152128
 C         2.251777        -1.335345         0.112262
 C         3.189791        -0.065926         0.095864
 C         4.660602        -0.022223         0.582712
 O         4.403537        -0.170183         1.974222
 C         2.941230         0.117290         2.365607
 C         2.475743         0.638909         1.157872
 O         2.264499         0.478260        -1.008690
 H        -0.335701        -1.006574         0.555889
 H        -0.540436         0.799627         0.277912
 H        -0.169939        -0.328604        -1.029837
 H         2.238185        -2.112758         0.913681
 H         1.985789        -1.848867        -0.812196
 H         5.154286        -0.926396         0.160231
 H         5.135135         0.929689         0.238088
 H         2.410055        -0.918309         2.610903
 H         3.157059         0.710218         3.268896
 H         2.532504         1.722879         1.264999
