19
Iteration:  2931
 C        -0.030798         0.023987        -0.201773
 C         1.368553        -0.082209         0.159980
 C         2.181187        -1.367289         0.138673
 C         3.149997        -0.102670         0.119562
 C         4.591163        -0.015353         0.532875
 O         4.519869        -0.224870         1.995941
 C         3.181068         0.178563         2.516828
 C         2.454329         0.597683         1.218624
 O         2.237609         0.485977        -0.994763
 H        -0.744021        -0.415899         0.463770
 H        -0.612191         1.039319        -0.234990
 H        -0.093571        -0.391190        -1.184188
 H         2.046984        -2.002385         0.963669
 H         2.137331        -1.783535        -0.867722
 H         5.303638        -0.684274         0.120335
 H         5.071704         1.034290         0.251698
 H         2.684527        -0.665509         2.885181
 H         3.280624         1.010998         3.200090
 H         2.485534         1.716169         1.122401
