19
Iteration:   570charge 0 multiplicity 1
 C         0.009872         0.100111        -0.079974
 C         1.382251        -0.183874         0.059898
 C         2.235481        -1.422625        -0.160914
 C         3.154393        -0.248509         0.079034
 C         4.515412        -0.170497         0.603335
 O         4.557029         0.291853         1.957108
 C         3.122079         0.035218         2.486146
 C         2.262859         0.413033         1.324942
 O         2.321651         0.582768        -0.818355
 H        -0.553142        -0.276053         0.693846
 H        -0.049729         1.315611        -0.101092
 H        -0.403743        -0.207469        -1.107373
 H         2.216503        -2.197786         0.629751
 H         2.314747        -1.822342        -1.174361
 H         4.986727        -1.082609         0.357854
 H         5.073672         0.414765        -0.132901
 H         3.040866        -0.920855         2.871305
 H         3.003343         0.819476         3.394610
 H         2.547326         1.535403         1.157968
