19
Iteration:  2773charge 0 multiplicity 1
 O         0.107021        -0.127971         0.034731
 C        -1.002059         0.550434         0.652187
 C        -1.369910         2.089593         0.873094
 C        -2.356278         1.260179         1.731054
 C        -1.182473         0.291629         2.201377
 C        -3.766892         1.657026         2.063270
 C        -4.328979         1.632770         0.618333
 O        -3.436853         1.110056        -0.273890
 C        -2.570339         0.267765         0.470919
 H         0.550964         0.547687        -0.487289
 H        -0.607995         2.549277         1.474587
 H        -1.508048         2.828911         0.125037
 H        -0.359150         0.684741         2.849980
 H        -1.411339        -0.753883         2.281666
 H        -4.201483         0.890487         2.601262
 H        -3.980206         2.644975         2.454131
 H        -5.328935         1.001148         0.488796
 H        -4.494153         2.621383         0.223938
 H        -2.938743        -0.767699         0.632749
