19
Iteration:  4603charge 0 multiplicity 1
 O         0.166277        -0.020587         0.024982
 C        -0.919816         0.514069         0.715541
 C        -1.218635         2.011317         1.043661
 C        -2.420173         1.237374         1.640536
 C        -1.208801         0.231997         2.226258
 C        -3.850687         1.712625         2.038481
 C        -4.553444         1.533105         0.655340
 O        -3.411909         1.118052        -0.404909
 C        -2.524926         0.368860         0.365676
 H         1.007198         0.434906         0.194793
 H        -0.443012         2.507692         1.728328
 H        -1.580155         2.679152         0.183976
 H        -0.656767         0.685340         3.007516
 H        -1.502240        -0.809594         2.570321
 H        -4.306907         1.231920         2.939405
 H        -3.739052         2.864004         2.173670
 H        -5.343779         0.730651         0.560711
 H        -4.789291         2.480377         0.144975
 H        -2.837019        -0.720054         0.478826
