19
Iteration:  3985
 O         0.126660         0.012690         0.125076
 C        -0.937071         0.567812         0.733740
 C        -1.283592         2.026992         0.845794
 C        -2.390184         1.074470         1.697868
 C        -1.177534         0.203777         2.240017
 C        -3.724142         1.657328         2.049715
 C        -4.380433         1.742290         0.584142
 O        -3.429185         1.123848        -0.333402
 C        -2.641959         0.280988         0.447320
 H         0.298840         0.424633        -0.771650
 H        -0.567816         2.651577         1.483161
 H        -1.665645         2.436749        -0.059774
 H        -0.521840         0.621497         2.975608
 H        -1.332854        -0.878827         2.602289
 H        -4.407672         0.980600         2.585177
 H        -3.759663         2.671869         2.566559
 H        -5.360225         1.230941         0.466284
 H        -4.806173         2.722491         0.207829
 H        -3.090152        -0.733755         0.238610
