19
Iteration:  4202charge 0 multiplicity 1
 O         0.006601         0.054887        -0.060423
 C        -0.980849         0.545796         0.789135
 C        -1.354302         2.020667         0.966558
 C        -2.444616         1.129110         1.802587
 C        -1.206360         0.213989         2.251238
 C        -3.830496         1.590934         1.968207
 C        -4.158760         1.868305         0.460688
 O        -3.441644         0.951920        -0.315871
 C        -2.483176         0.288767         0.547116
 H         0.380388         0.786460        -0.567495
 H        -0.653391         2.580059         1.637484
 H        -1.689819         2.535625         0.102646
 H        -0.478335         0.611204         2.927156
 H        -1.490490        -0.872398         2.568644
 H        -4.448414         0.815061         2.399580
 H        -3.929588         2.614962         2.414276
 H        -5.237732         1.822357         0.269542
 H        -3.739786         2.857724         0.349048
 H        -2.732380        -0.802198         0.631926
