19
Iteration:  4084charge 0 multiplicity 1
 O        -0.025914        -0.080265        -0.039315
 C        -1.025863         0.581982         0.736347
 C        -1.405577         2.063701         0.995106
 C        -2.382683         1.190339         1.793409
 C        -1.227735         0.187583         2.214999
 C        -3.805260         1.688030         2.008022
 C        -4.298750         1.560950         0.539127
 O        -3.222013         1.188191        -0.324746
 C        -2.457727         0.349932         0.517492
 H        -0.079464         0.442151        -0.855349
 H        -0.672129         2.708402         1.529405
 H        -1.798727         2.470105         0.093368
 H        -0.497756         0.472644         2.935763
 H        -1.600747        -0.816713         2.519536
 H        -4.354286         1.057343         2.690738
 H        -3.764569         2.762610         2.262308
 H        -5.054186         0.771588         0.488221
 H        -4.550680         2.530624         0.094778
 H        -2.888907        -0.637341         0.553791
