19
Iteration:   423
 O         0.078805         0.117379        -0.084524
 C        -0.980372         0.555314         0.703561
 C        -1.180972         1.945307         1.165460
 C        -2.390697         1.253246         1.776946
 C        -1.390741         0.119125         2.260518
 C        -3.761352         1.868432         1.965803
 C        -4.370372         1.671120         0.520812
 O        -3.355163         0.976708        -0.412549
 C        -2.518138         0.330025         0.478399
 H         0.055218        -0.865036        -0.166203
 H        -0.351125         2.323673         1.868414
 H        -1.283164         2.765192         0.427288
 H        -0.556031         0.181427         3.038758
 H        -2.018080        -0.861299         2.228376
 H        -4.248543         1.253562         2.770678
 H        -3.709720         2.858668         2.403373
 H        -5.270723         0.978988         0.468976
 H        -4.585578         2.595088        -0.045614
 H        -2.972898        -0.679728         0.631507
