19
Iteration:  1024charge 0 multiplicity 1
 O         0.040836         0.084662        -0.144065
 C        -1.041439         0.550423         0.736470
 C        -1.220800         2.013247         1.158691
 C        -2.454330         1.211641         1.818737
 C        -1.213095        -0.016248         2.262283
 C        -3.849665         1.867809         1.929013
 C        -4.369829         1.656736         0.492367
 O        -3.271450         1.106902        -0.413381
 C        -2.550641         0.336452         0.554283
 H         0.438588        -0.818984        -0.017841
 H        -0.413400         2.270964         1.888321
 H        -1.446058         2.744893         0.425530
 H        -0.307633         0.277250         2.888999
 H        -1.502620        -1.114143         2.319511
 H        -4.522203         1.356626         2.635373
 H        -3.803183         2.968899         2.154025
 H        -5.171846         0.909306         0.556403
 H        -4.690213         2.594931         0.103565
 H        -2.971353        -0.726666         0.672599
