19
Iteration:  1806charge 0 multiplicity 1
 O         0.065393         0.053532        -0.220204
 C        -0.942398         0.517575         0.680768
 C        -1.378698         1.995819         1.197211
 C        -2.433686         1.116197         1.810852
 C        -1.174762         0.025011         2.198476
 C        -3.969382         1.758069         2.056963
 C        -4.227078         2.020322         0.490572
 O        -3.319535         0.999704        -0.353061
 C        -2.550570         0.272765         0.504201
 H         0.800302        -0.243878         0.346634
 H        -0.747314         2.537767         1.989451
 H        -1.782641         2.690710         0.488327
 H        -0.443989         0.319447         2.896590
 H        -1.513653        -1.035404         2.278761
 H        -4.633183         0.967747         2.378715
 H        -3.808419         2.628352         2.767810
 H        -5.196173         1.659972         0.181668
 H        -4.037528         2.918719        -0.033197
 H        -2.930579        -0.805817         0.735352
