19
Iteration:  3360charge 0 multiplicity 1
 O         0.151912         0.011214        -0.014685
 C        -1.026518         0.476249         0.687058
 C        -1.318065         1.963691         0.925031
 C        -2.384108         1.134878         1.752025
 C        -1.164073         0.358949         2.253456
 C        -3.809359         1.538779         2.060274
 C        -4.276684         1.839718         0.565775
 O        -3.469173         0.997237        -0.338583
 C        -2.597441         0.333629         0.505238
 H         0.303673         0.485717        -0.867943
 H        -0.593290         2.515629         1.529765
 H        -1.660814         2.431777         0.012736
 H        -0.540216         1.123660         2.862483
 H        -1.371042        -0.601639         2.757363
 H        -4.449339         0.739665         2.433986
 H        -3.943450         2.396663         2.737594
 H        -5.338223         1.821234         0.357098
 H        -4.061420         2.918135         0.411356
 H        -2.832658        -0.768975         0.569867
