19
Iteration:  4643charge 0 multiplicity 1
 O         0.067838         0.028308         0.006179
 C        -0.935963         0.537121         0.778803
 C        -1.219254         2.035304         1.028416
 C        -2.378804         1.196842         1.699358
 C        -1.309617         0.168479         2.216280
 C        -3.821697         1.813101         2.072580
 C        -4.472108         1.532042         0.631916
 O        -3.317288         1.065863        -0.451884
 C        -2.496766         0.335686         0.412875
 H         0.444734         0.825986        -0.424893
 H        -0.603119         2.562904         1.744888
 H        -1.457208         2.472828         0.120988
 H        -0.506653         0.627102         2.899812
 H        -1.662914        -0.846614         2.371947
 H        -4.292509         1.100051         2.792843
 H        -3.905854         2.857637         2.246852
 H        -5.160832         0.703377         0.682105
 H        -4.985154         2.442459         0.237484
 H        -2.742953        -0.719005         0.510772
