19
Iteration:  3311
 O         0.069894         0.107734        -0.142812
 C        -0.971868         0.585399         0.717521
 C        -1.329617         2.059335         1.093069
 C        -2.420368         1.081193         1.756517
 C        -1.204605         0.162224         2.233508
 C        -3.800999         1.803819         1.974999
 C        -4.141340         1.868185         0.475440
 O        -3.617522         0.769215        -0.276308
 C        -2.480753         0.195817         0.528719
 H         0.758021         0.773840        -0.224023
 H        -0.589541         2.490458         1.801857
 H        -1.854990         2.783395         0.436688
 H        -0.472189         0.635868         2.786907
 H        -1.206201        -0.921067         2.346731
 H        -4.574911         1.354075         2.615440
 H        -3.635770         2.841625         2.306284
 H        -5.244499         1.792456         0.364998
 H        -3.963053         2.873169         0.236862
 H        -2.748288        -0.786276         0.809451
