19
Iteration:  1641
 O        -0.048005        -0.006947        -0.135063
 C        -0.955488         0.552495         0.688555
 C        -1.240562         1.961209         1.204932
 C        -2.412590         1.083838         1.812489
 C        -1.324136         0.136593         2.216303
 C        -3.827778         1.712625         1.998463
 C        -4.341798         1.662632         0.545312
 O        -3.210537         1.259797        -0.375009
 C        -2.475855         0.445620         0.429352
 H        -0.202557        -0.985960        -0.311715
 H        -0.530342         2.266160         1.966360
 H        -1.457085         2.820085         0.473127
 H        -0.727425         0.495864         3.139325
 H        -1.673690        -0.930326         2.263864
 H        -4.412286         0.973993         2.530392
 H        -3.730512         2.718108         2.498476
 H        -5.130470         0.904861         0.470437
 H        -4.665526         2.587357         0.185860
 H        -2.865583        -0.584768         0.330887
