19
Iteration:  3110
 O        -0.089571         0.021214        -0.125522
 C        -1.027638         0.521102         0.671049
 C        -1.228218         2.061965         0.998087
 C        -2.349977         1.208183         1.746078
 C        -1.227464         0.189234         2.314453
 C        -3.791378         1.719797         1.968501
 C        -4.328638         1.681172         0.559440
 O        -3.333097         1.020079        -0.336929
 C        -2.506432         0.285921         0.524561
 H         0.637655         0.645117        -0.089101
 H        -0.432792         2.489216         1.639701
 H        -1.391292         2.636732         0.061459
 H        -0.675275         0.650825         3.180560
 H        -1.656711        -0.758919         2.611904
 H        -4.180840         0.874809         2.592378
 H        -3.975975         2.556856         2.707068
 H        -5.273204         1.238371         0.532913
 H        -4.492180         2.714339         0.317443
 H        -2.761248        -0.762753         0.586133
