19
Iteration:  1370
 O         0.052966        -0.117801        -0.100055
 C        -0.980398         0.515679         0.699897
 C        -1.129158         2.044301         1.085331
 C        -2.479028         1.166439         1.798917
 C        -1.281595         0.158738         2.192176
 C        -3.886258         1.665555         1.968389
 C        -4.383861         1.692573         0.565168
 O        -3.320263         1.234927        -0.337854
 C        -2.513361         0.417007         0.433262
 H         0.823135        -0.118080         0.482368
 H        -0.497385         2.453743         1.897165
 H        -1.417302         2.654986         0.171346
 H        -0.510496         0.476011         2.946609
 H        -1.552760        -0.875036         2.142212
 H        -4.475520         0.862281         2.664951
 H        -3.968357         2.566885         2.656780
 H        -5.321265         1.040398         0.551741
 H        -4.554350         2.676171         0.059179
 H        -2.883137        -0.572105         0.643594
