19
Iteration:  4138
 O         0.217825         0.059904         0.070941
 C        -0.986045         0.579597         0.703333
 C        -1.233469         2.072421         0.923973
 C        -2.346514         1.239551         1.765088
 C        -1.315666         0.100934         2.234509
 C        -3.812040         1.684959         2.063671
 C        -4.367231         1.827486         0.585922
 O        -3.494799         0.920202        -0.369513
 C        -2.504921         0.304192         0.435433
 H        -0.179084         0.073804        -0.793367
 H        -0.387627         2.490165         1.555622
 H        -1.556997         2.742381         0.146919
 H        -0.605331         0.336590         2.978447
 H        -1.953511        -0.839978         2.191593
 H        -4.248419         0.824271         2.598205
 H        -4.042275         2.544580         2.776533
 H        -5.360440         1.370333         0.404380
 H        -4.186497         2.799169         0.117469
 H        -2.729550        -0.774789         0.400331
