19
Iteration:  1396
 O         0.135681        -0.072527         0.074069
 C        -0.977922         0.438237         0.667505
 C        -1.275339         1.935323         1.003520
 C        -2.380637         1.142878         1.745978
 C        -1.296722         0.156120         2.204462
 C        -3.743804         1.651233         2.086767
 C        -4.386097         1.768944         0.515024
 O        -3.410690         1.317636        -0.380073
 C        -2.556057         0.332860         0.373582
 H         0.854810         0.584284         0.091194
 H        -0.623762         2.482835         1.720709
 H        -1.723068         2.579150         0.231339
 H        -0.525994         0.426251         2.900374
 H        -1.670487        -0.874901         2.390268
 H        -4.215223         0.837111         2.659436
 H        -3.890866         2.470845         2.766797
 H        -5.330397         1.278275         0.471458
 H        -4.546677         2.798001         0.171274
 H        -3.005183        -0.651446         0.462694
