19
Iteration:  2801charge 0 multiplicity 1
 O         0.076632        -0.083631        -0.018992
 C        -0.952986         0.590638         0.743602
 C        -1.243404         2.078552         0.944539
 C        -2.332253         1.240780         1.720374
 C        -1.232016         0.242590         2.252399
 C        -3.762171         1.685039         2.051632
 C        -4.519659         1.547114         0.650390
 O        -3.375707         1.096789        -0.391736
 C        -2.509092         0.404830         0.477466
 H        -0.392893        -0.255447        -0.839454
 H        -0.460280         2.606769         1.610437
 H        -1.384928         2.677142        -0.018623
 H        -0.473676         0.711679         2.904703
 H        -1.478311        -0.858091         2.426796
 H        -4.200699         0.968855         2.864009
 H        -3.829912         2.773133         2.300973
 H        -5.206469         0.741230         0.576137
 H        -4.753177         2.564255         0.258857
 H        -2.889050        -0.654116         0.541689
