19
Iteration:  3631
 O         0.077414         0.011115        -0.135443
 C        -0.916949         0.596916         0.727322
 C        -1.227898         2.058289         1.075568
 C        -2.406839         1.154011         1.794178
 C        -1.219780         0.247975         2.275621
 C        -3.802960         1.705703         2.027798
 C        -4.374978         1.672768         0.528406
 O        -3.442001         0.993330        -0.393025
 C        -2.465548         0.335414         0.527361
 H        -0.414450        -0.298150        -0.928181
 H        -0.654866         2.578303         1.886161
 H        -1.693811         2.603936         0.279019
 H        -0.579933         0.752543         2.994085
 H        -1.566985        -0.708862         2.575943
 H        -4.281146         0.844736         2.542658
 H        -3.990813         2.607014         2.626531
 H        -5.419396         1.274165         0.453969
 H        -4.361424         2.734163         0.081120
 H        -2.694738        -0.754078         0.602663
