19
Iteration:  3085
 O         0.054339        -0.119771        -0.170082
 C        -0.928670         0.480329         0.694992
 C        -1.310424         2.045127         0.951864
 C        -2.431134         1.232936         1.778892
 C        -1.243614         0.336603         2.292279
 C        -3.898790         1.520193         2.069700
 C        -4.257727         1.731180         0.538967
 O        -3.370596         1.153089        -0.340676
 C        -2.527444         0.336117         0.543331
 H         0.885751         0.381922        -0.133448
 H        -0.443784         2.553699         1.300852
 H        -1.583742         2.426549         0.003945
 H        -0.688863         0.976837         2.939946
 H        -1.344026        -0.640815         2.612624
 H        -4.261910         0.658508         2.583026
 H        -4.118696         2.259515         2.761671
 H        -5.304002         1.366119         0.471642
 H        -4.388734         2.833530         0.502505
 H        -2.997847        -0.584747         0.817582
