19
Iteration:   138charge 0 multiplicity 1
 O         0.009660        -0.091761        -0.115826
 C        -0.922978         0.584513         0.735883
 C        -1.262227         1.998899         1.034994
 C        -2.403184         1.190293         1.709586
 C        -1.387307         0.223561         2.379249
 C        -3.723107         1.750403         1.993702
 C        -4.383124         1.644615         0.527506
 O        -3.357191         1.048727        -0.374046
 C        -2.438943         0.346155         0.469132
 H         0.871401         0.462117        -0.110770
 H        -0.559234         2.647135         1.659160
 H        -1.550556         2.693737         0.189799
 H        -0.872049         0.743329         3.281931
 H        -1.838549        -0.836714         2.305454
 H        -4.278401         1.112766         2.783608
 H        -3.674943         2.800300         2.290022
 H        -5.366507         1.131129         0.517077
 H        -4.562237         2.731827         0.226398
 H        -2.835079        -0.709311         0.624143
