19
Iteration:   167charge 0 multiplicity 1
 O         0.079605        -0.021773         0.066443
 C        -1.097703         0.459336         0.760778
 C        -1.327526         1.972146         0.953944
 C        -2.354846         1.213769         1.787157
 C        -1.162654         0.228052         2.218740
 C        -3.826045         1.642754         2.025165
 C        -4.308558         1.769888         0.433509
 O        -3.319667         1.110583        -0.377264
 C        -2.546473         0.316979         0.543368
 H         0.028502         0.402770        -0.800827
 H        -0.506966         2.417966         1.531569
 H        -1.759577         2.489922         0.057007
 H        -0.364442         0.649413         2.805381
 H        -1.399729        -0.773330         2.646801
 H        -4.381265         0.945280         2.616881
 H        -3.960337         2.604789         2.608268
 H        -5.321128         1.348178         0.228840
 H        -4.329655         2.789587         0.147768
 H        -3.150880        -0.576257         0.601007
