19
Iteration:  3658
 O         0.093311        -0.108491         0.061054
 C        -1.066042         0.529486         0.708068
 C        -1.308069         2.110838         0.951926
 C        -2.419810         1.153381         1.786011
 C        -1.173706         0.343098         2.127199
 C        -3.844394         1.580975         2.049992
 C        -4.347757         1.604419         0.634591
 O        -3.283957         1.184672        -0.372250
 C        -2.506782         0.392044         0.463142
 H        -0.097845        -0.339092        -0.887713
 H        -0.707670         2.673173         1.655030
 H        -1.746548         2.704169         0.098983
 H        -0.281072         0.734690         2.638880
 H        -1.452971        -0.765038         2.317891
 H        -4.284031         0.733183         2.574911
 H        -3.955206         2.494228         2.640443
 H        -5.229389         0.969114         0.392833
 H        -4.707190         2.518762         0.295976
 H        -2.958475        -0.550870         0.742049
