19
Iteration:  2080charge 0 multiplicity 1
 O        -0.092462         0.136602        -0.188538
 C        -0.990147         0.542805         0.704277
 C        -1.353285         2.079801         1.140612
 C        -2.379927         1.164562         1.725183
 C        -1.250225         0.239053         2.304283
 C        -3.751628         1.720557         2.063713
 C        -4.136122         1.789650         0.437993
 O        -3.435575         0.881872        -0.298556
 C        -2.505866         0.170909         0.436587
 H         0.386039        -0.629864         0.164632
 H        -0.575738         2.469073         1.825736
 H        -1.762279         2.921165         0.482778
 H        -0.581169         0.647192         2.936304
 H        -1.426683        -0.784705         2.522709
 H        -4.251906         1.118395         2.885537
 H        -3.666551         2.835590         2.288397
 H        -5.262228         1.712790         0.260273
 H        -3.722391         2.776655         0.284202
 H        -2.769167        -0.895703         0.517866
