19
Iteration:  3396charge 0 multiplicity 1
 O         0.099472        -0.069863         0.013023
 C        -0.968787         0.615443         0.632974
 C        -1.399792         2.089893         1.042593
 C        -2.400784         1.202413         1.762872
 C        -1.240262         0.230297         2.160698
 C        -3.713062         1.664033         2.009807
 C        -4.361960         1.626198         0.582483
 O        -3.329145         1.066692        -0.320495
 C        -2.553274         0.391143         0.507440
 H        -0.182789        -0.450904        -0.854509
 H        -0.738222         2.718296         1.614955
 H        -1.730305         2.592821         0.153843
 H        -0.549324         0.624981         2.878544
 H        -1.483238        -0.791061         2.378977
 H        -4.195272         1.038021         2.779165
 H        -3.624938         2.690473         2.357325
 H        -5.104297         0.818930         0.491788
 H        -4.642319         2.586718         0.248641
 H        -2.891481        -0.649677         0.624319
