19
Iteration:  4544charge 0 multiplicity 1
 O        -0.051452         0.065853        -0.198788
 C        -0.992282         0.599409         0.752337
 C        -1.205917         2.070203         1.098247
 C        -2.388323         1.208590         1.822114
 C        -1.217566         0.209867         2.253878
 C        -3.885441         1.684241         1.949265
 C        -4.343500         1.633157         0.431608
 O        -3.290659         0.960004        -0.345379
 C        -2.527174         0.329680         0.612343
 H         0.839511         0.212627         0.113154
 H        -0.584027         2.675442         1.745409
 H        -1.445049         2.655973         0.254542
 H        -0.378470         0.644727         2.958406
 H        -1.608368        -0.736276         2.560914
 H        -4.541356         0.946808         2.503573
 H        -3.840365         2.631987         2.409442
 H        -5.211559         0.924707         0.585995
 H        -4.795793         2.510524        -0.056000
 H        -2.718031        -0.744507         0.722194
