19
Iteration:  2038charge 0 multiplicity 1
 O         0.060935        -0.004295         0.002290
 C        -0.986125         0.471003         0.724514
 C        -1.348172         1.914706         0.863062
 C        -2.353751         1.251331         1.758814
 C        -1.125816         0.174763         2.187121
 C        -3.862087         1.592311         2.006329
 C        -4.312955         1.823654         0.559672
 O        -3.458465         1.089165        -0.279977
 C        -2.519006         0.340477         0.557683
 H         0.637165         0.789511        -0.245604
 H        -0.496237         2.439556         1.411752
 H        -1.633304         2.615454        -0.032266
 H        -0.395900         0.504173         2.911366
 H        -1.640195        -0.759808         2.398487
 H        -4.330723         0.665174         2.487381
 H        -4.036282         2.519779         2.578542
 H        -5.333104         1.758110         0.034897
 H        -3.936125         2.895729         0.458605
 H        -2.862203        -0.653565         0.693666
