19
Iteration:  3233charge 0 multiplicity 1
 O        -0.041894        -0.225231        -0.065176
 C        -1.010676         0.580660         0.680928
 C        -1.259888         2.135960         1.046881
 C        -2.336605         1.210554         1.776481
 C        -1.121643         0.387283         2.225988
 C        -3.811506         1.558305         2.000969
 C        -4.398119         1.597207         0.577216
 O        -3.383023         1.151228        -0.390722
 C        -2.513239         0.373360         0.464157
 H         0.812215         0.183601         0.105025
 H        -0.536315         2.519134         1.815292
 H        -1.459363         2.866373         0.259059
 H        -0.379841         0.796511         2.873693
 H        -1.469280        -0.517680         2.626666
 H        -4.244870         0.705356         2.564596
 H        -4.138939         2.521609         2.417622
 H        -5.294731         0.974853         0.585741
 H        -4.639078         2.570786         0.372544
 H        -2.912104        -0.602532         0.529974
