19
Iteration:   473charge 0 multiplicity 1
 O         0.094666        -0.023713         0.097881
 C        -1.029606         0.445319         0.657400
 C        -1.292244         2.031494         0.963074
 C        -2.419962         1.217699         1.795643
 C        -1.185272         0.188421         2.206877
 C        -3.866016         1.577806         2.024592
 C        -4.402394         1.806435         0.455608
 O        -3.253422         1.211620        -0.354142
 C        -2.564454         0.273257         0.544287
 H         0.250874        -0.527257        -0.744759
 H        -0.465566         2.428673         1.563080
 H        -1.664684         2.618974         0.140597
 H        -0.397325         0.839949         2.618803
 H        -1.309700        -0.779735         2.586292
 H        -4.258422         0.846189         2.768141
 H        -4.021641         2.541917         2.582745
 H        -5.321045         1.277237         0.089572
 H        -4.466087         2.859291         0.189500
 H        -3.160192        -0.635243         0.678500
