19
Iteration:  1885
 O         0.067019        -0.102626         0.075609
 C        -1.018942         0.594696         0.682999
 C        -1.121907         2.041372         1.026048
 C        -2.380750         1.117392         1.813007
 C        -1.227642         0.111097         2.140213
 C        -3.786315         1.654425         2.039810
 C        -4.429751         1.697864         0.522419
 O        -3.377353         1.237138        -0.426902
 C        -2.589017         0.403436         0.525256
 H         0.194668         0.263941        -0.810065
 H        -0.287651         2.414782         1.665322
 H        -1.475487         2.849714         0.341219
 H        -0.594025         0.383979         3.001017
 H        -1.507871        -0.992900         2.243348
 H        -4.381148         0.927757         2.619126
 H        -3.822335         2.589832         2.594556
 H        -5.265888         1.018702         0.527617
 H        -4.716661         2.587522        -0.012079
 H        -3.001584        -0.677288         0.592225
