19
Iteration:  2860
 O        -0.017551         0.142505        -0.177787
 C        -0.975787         0.509342         0.752330
 C        -1.284897         1.983842         1.005419
 C        -2.349772         1.175399         1.798286
 C        -1.311988         0.123874         2.212711
 C        -3.699742         1.882856         1.909434
 C        -4.380942         1.563379         0.578948
 O        -3.371025         1.060565        -0.269229
 C        -2.493585         0.322077         0.551131
 H         0.702898        -0.346818         0.271932
 H        -0.485539         2.540208         1.570804
 H        -1.534667         2.462195         0.045559
 H        -0.520073         0.488876         2.877664
 H        -1.638172        -0.838537         2.465944
 H        -4.346433         1.494973         2.646538
 H        -3.562411         2.947966         2.129824
 H        -5.156864         0.814378         0.937286
 H        -5.066344         2.196976         0.096495
 H        -2.694895        -0.773259         0.542509
