19
Iteration:  3636charge 0 multiplicity 1
 O         0.046879        -0.012919        -0.079499
 C        -0.921530         0.645103         0.704565
 C        -1.236715         2.030047         1.073795
 C        -2.383679         1.175046         1.780070
 C        -1.158861         0.237937         2.253780
 C        -3.789745         1.667838         2.018988
 C        -4.400832         1.640590         0.494779
 O        -3.430062         1.056627        -0.373885
 C        -2.494496         0.307487         0.523158
 H        -0.364541        -0.368412        -0.865371
 H        -0.637254         2.623371         1.738490
 H        -1.704463         2.778583         0.363471
 H        -0.595217         0.844232         3.004261
 H        -1.552506        -0.749191         2.713916
 H        -4.267526         0.812489         2.499434
 H        -3.963439         2.587134         2.587434
 H        -5.478537         1.421275         0.525755
 H        -4.458210         2.623936         0.130197
 H        -2.687379        -0.764190         0.500972
