19
Iteration:  2188charge 0 multiplicity 1
 O         0.097670        -0.096754        -0.035014
 C        -0.956240         0.498660         0.640853
 C        -1.224762         2.022651         0.969659
 C        -2.371687         1.273779         1.782710
 C        -1.234543         0.270069         2.221844
 C        -3.814471         1.650791         2.087406
 C        -4.430442         1.723499         0.533710
 O        -3.441809         1.063151        -0.355294
 C        -2.548960         0.346951         0.525594
 H         0.742668         0.627284        -0.240550
 H        -0.427128         2.602116         1.341109
 H        -1.566647         2.449685         0.008177
 H        -0.556535         0.904822         2.873860
 H        -1.386106        -0.884588         2.545268
 H        -4.101354         0.694265         2.563127
 H        -4.061094         2.495254         2.787753
 H        -5.436459         1.176522         0.413760
 H        -4.427095         2.767347         0.202742
 H        -2.782513        -0.777590         0.743067
