19
Iteration:   363charge 0 multiplicity 1
 O         0.073216         0.005329         0.019393
 C        -1.006350         0.553340         0.716709
 C        -1.315812         2.035019         1.046933
 C        -2.429828         1.108091         1.716428
 C        -1.414672         0.205463         2.251155
 C        -3.710083         1.771267         2.058667
 C        -4.264931         1.616481         0.518058
 O        -3.288496         1.107737        -0.374713
 C        -2.516987         0.407656         0.376618
 H         0.042040        -0.853680        -0.360996
 H        -0.520068         2.455644         1.564343
 H        -1.736387         2.505340         0.135806
 H        -0.838494         0.581625         3.035572
 H        -1.747838        -0.751211         2.444828
 H        -4.292075         1.261756         2.803725
 H        -3.360263         2.777308         2.460768
 H        -5.101887         0.900417         0.780847
 H        -4.730649         2.537706         0.137673
 H        -2.837864        -0.626396         0.600377
