19
Iteration:  3342
 O         0.118418         0.062645        -0.046502
 C        -0.965588         0.535510         0.701993
 C        -1.320773         2.061794         0.927318
 C        -2.370897         1.247034         1.701413
 C        -1.279849         0.255745         2.224607
 C        -3.790645         1.571754         1.983457
 C        -4.147852         1.946653         0.561513
 O        -3.556972         0.859762        -0.275773
 C        -2.560058         0.156927         0.579929
 H         0.461384         0.846994        -0.560512
 H        -0.578702         2.532150         1.586016
 H        -1.632498         2.733141         0.125292
 H        -0.479577         0.505947         2.854689
 H        -1.577752        -0.744025         2.433518
 H        -4.285896         0.632359         2.345522
 H        -4.046448         2.331599         2.723444
 H        -5.294280         1.856436         0.367268
 H        -3.863960         2.996103         0.332766
 H        -2.938925        -0.806447         0.922096
