19
Iteration:  2334
 O         0.041045        -0.181504         0.012183
 C        -0.983938         0.572417         0.575754
 C        -1.268475         2.069673         0.954852
 C        -2.372542         1.178749         1.751725
 C        -1.182093         0.278735         2.224085
 C        -3.777536         1.658197         2.084043
 C        -4.483965         1.580307         0.613991
 O        -3.368583         1.140076        -0.400863
 C        -2.506821         0.431355         0.446222
 H         0.738561         0.463560         0.129998
 H        -0.728664         2.563117         1.770996
 H        -1.584614         2.675799         0.159382
 H        -0.294826         0.798815         2.701267
 H        -1.288744        -0.775179         2.568955
 H        -4.309089         0.986439         2.868554
 H        -3.799900         2.709391         2.451601
 H        -5.262258         0.834311         0.811111
 H        -4.700178         2.636466         0.413856
 H        -3.104383        -0.511205         0.660668
