19
Iteration:  4418
 O         0.047703         0.065456        -0.034311
 C        -0.982169         0.581703         0.698831
 C        -1.304079         2.009168         1.080974
 C        -2.388187         1.192632         1.835088
 C        -1.174026         0.189067         2.210183
 C        -3.800486         1.717240         1.906730
 C        -4.388610         1.844697         0.490714
 O        -3.397681         0.831848        -0.391004
 C        -2.504685         0.283473         0.610398
 H         0.511432         0.745490        -0.566819
 H        -0.439172         2.580679         1.557362
 H        -1.769251         2.533779         0.245741
 H        -0.468875         0.631540         2.884884
 H        -1.414805        -0.911155         2.351279
 H        -4.346421         0.947997         2.460266
 H        -4.082224         2.609432         2.552702
 H        -5.353335         1.474027         0.333525
 H        -4.248700         2.918364         0.287766
 H        -2.761298        -0.754617         0.839555
