19
Iteration:  2713charge 0 multiplicity 1
 O        -0.090567         0.164110        -0.211120
 C        -1.008966         0.562028         0.664056
 C        -1.324678         2.044726         1.012826
 C        -2.397890         1.148233         1.785547
 C        -1.250422         0.249857         2.263221
 C        -3.763975         1.730580         1.994339
 C        -4.147281         1.842419         0.487737
 O        -3.457649         0.760815        -0.242678
 C        -2.445128         0.213183         0.580247
 H         0.752480         0.290927         0.229833
 H        -0.514910         2.523754         1.690405
 H        -1.811791         2.569115         0.131700
 H        -0.549602         0.566156         2.995152
 H        -1.319843        -0.868684         2.403909
 H        -4.621715         1.115641         2.514617
 H        -3.675981         2.676801         2.567611
 H        -5.236554         1.644985         0.288338
 H        -3.895806         2.893346         0.085325
 H        -2.781959        -0.753748         1.027046
