19
Iteration:  4054charge 0 multiplicity 1
 O         0.130838         0.017022        -0.058817
 C        -1.033872         0.537074         0.686478
 C        -1.214815         1.970181         1.108883
 C        -2.371389         1.207783         1.746362
 C        -1.270077         0.183850         2.269980
 C        -3.816928         1.800723         2.006423
 C        -4.381370         1.558652         0.553357
 O        -3.382844         1.106956        -0.365961
 C        -2.533302         0.315805         0.460038
 H         0.006946         0.591184        -0.865408
 H        -0.422762         2.356281         1.713111
 H        -1.377587         2.569323         0.191211
 H        -0.439768         0.576927         2.901639
 H        -1.687599        -0.687373         2.677315
 H        -4.321790         1.254155         2.823248
 H        -3.754101         2.824197         2.293149
 H        -5.270417         0.915787         0.590050
 H        -4.827638         2.425430         0.037432
 H        -2.885617        -0.741963         0.592631
