19
Iteration:  4501
 O         0.048117         0.061199        -0.084919
 C        -0.982964         0.545052         0.700911
 C        -1.343946         2.124827         0.961568
 C        -2.455264         1.100959         1.744131
 C        -1.310302         0.251632         2.236741
 C        -3.814402         1.640186         2.030817
 C        -4.254088         1.793860         0.589654
 O        -3.323814         0.885159        -0.318332
 C        -2.475235         0.269048         0.506373
 H         0.748699         0.726115        -0.082021
 H        -0.595947         2.691098         1.584308
 H        -1.683411         2.724359         0.122868
 H        -0.660956         0.771880         3.030719
 H        -1.508878        -0.759047         2.495435
 H        -4.576948         0.919600         2.388272
 H        -3.822387         2.568809         2.513581
 H        -5.280873         1.373456         0.266820
 H        -4.220015         2.790689         0.113513
 H        -2.831390        -0.708832         0.909950
