19
Iteration:  3010
 O         0.058562         0.273811        -0.195749
 C        -0.961851         0.483008         0.702120
 C        -1.194490         1.896091         0.999139
 C        -2.394222         1.110618         1.758365
 C        -1.262714         0.135945         2.285446
 C        -3.761732         1.769976         1.943763
 C        -4.259831         1.843228         0.477115
 O        -3.531293         0.893035        -0.230900
 C        -2.579484         0.266308         0.570949
 H         0.805405        -0.078658         0.353527
 H        -0.500782         2.424607         1.700785
 H        -1.511503         2.569918         0.219991
 H        -0.745763         0.794880         3.088989
 H        -1.535916        -0.851649         2.521842
 H        -4.434778         1.002320         2.434320
 H        -3.850137         2.751160         2.482753
 H        -5.262939         1.589511         0.584294
 H        -4.098271         2.834111         0.059454
 H        -2.813730        -0.811769         0.665675
