19
Iteration:  4291charge 0 multiplicity 1
 O         0.118455         0.061792        -0.035755
 C        -1.004108         0.511443         0.682109
 C        -1.312455         2.146389         0.979829
 C        -2.413990         1.190701         1.729615
 C        -1.398833         0.157297         2.202967
 C        -3.714014         1.787165         2.095147
 C        -4.376401         1.544817         0.629883
 O        -3.297955         1.122487        -0.392500
 C        -2.490660         0.223473         0.391253
 H         0.605046        -0.429686         0.662078
 H        -0.604790         2.611121         1.649467
 H        -1.692632         2.852067         0.196359
 H        -0.815797         0.412968         3.029134
 H        -1.702823        -0.829366         2.555702
 H        -4.269608         1.264478         2.849366
 H        -3.620617         2.872290         2.197073
 H        -5.275718         0.908638         0.804206
 H        -4.732344         2.409055         0.085375
 H        -2.964912        -0.792497         0.419295
