19
Iteration:  4821
 O         0.158891         0.225304        -0.069485
 C        -0.960395         0.530686         0.751052
 C        -1.209145         2.018292         1.092634
 C        -2.382467         1.202886         1.737838
 C        -1.313945         0.187839         2.224101
 C        -3.777966         1.634038         1.930844
 C        -4.327417         1.805647         0.464097
 O        -3.473576         0.915060        -0.343971
 C        -2.549900         0.260479         0.536215
 H         0.009024        -0.722528        -0.340993
 H        -0.575307         2.332359         1.866849
 H        -1.454709         2.731639         0.275494
 H        -0.625368         0.568291         2.938770
 H        -1.725196        -0.859571         2.636673
 H        -4.216391         0.848421         2.526002
 H        -4.019078         2.473227         2.621118
 H        -5.372087         1.493779         0.337147
 H        -4.351504         2.912889         0.214043
 H        -2.852577        -0.738724         0.828476
