19
Iteration:  3494
 O         0.146109        -0.081659         0.023133
 C        -0.976511         0.579813         0.607985
 C        -1.272296         2.031849         0.989076
 C        -2.364599         1.220319         1.763153
 C        -1.202346         0.218186         2.286760
 C        -3.778380         1.733266         2.005615
 C        -4.500150         1.545989         0.622051
 O        -3.399321         1.155002        -0.350979
 C        -2.526880         0.341290         0.440434
 H         0.205862         0.223286        -0.907784
 H        -0.604474         2.564168         1.606760
 H        -1.724931         2.645726         0.222881
 H        -0.338733         0.649449         2.856011
 H        -1.453378        -0.827893         2.462179
 H        -4.212695         1.209423         2.864522
 H        -3.730439         2.799414         2.200457
 H        -5.325855         0.776213         0.689703
 H        -4.896468         2.405942         0.152025
 H        -2.887122        -0.709672         0.656571
