19
Iteration:  1131
 O         0.173120         0.178997        -0.050030
 C        -0.949902         0.576427         0.749234
 C        -1.309739         1.961059         1.089259
 C        -2.488336         1.087331         1.744439
 C        -1.362223         0.084249         2.205826
 C        -3.730928         1.731592         1.980770
 C        -4.087518         1.877688         0.515415
 O        -3.546481         0.955936        -0.329132
 C        -2.543010         0.264769         0.457006
 H         0.015785        -0.664322        -0.502744
 H        -0.710651         2.576173         1.860340
 H        -1.623534         2.492617         0.204239
 H        -0.800634         0.506560         3.076192
 H        -1.753122        -0.888416         2.557831
 H        -4.548438         1.165815         2.430981
 H        -3.664942         2.679148         2.493565
 H        -5.204647         1.818122         0.438615
 H        -3.642384         2.882478         0.178749
 H        -2.910023        -0.765916         0.559875
