19
Iteration:  1435charge 0 multiplicity 1
 O         0.223454         0.044139        -0.001316
 C        -1.042690         0.531647         0.695469
 C        -1.289604         1.956025         1.169862
 C        -2.434424         1.120876         1.789916
 C        -1.340005         0.051602         2.186454
 C        -3.772016         1.744347         2.067896
 C        -4.296557         1.839993         0.458055
 O        -3.418371         1.111329        -0.346114
 C        -2.528599         0.314655         0.425543
 H        -0.070159         0.071968        -0.921198
 H        -0.522668         2.238705         1.888060
 H        -1.442185         2.582543         0.240198
 H        -0.511833         0.313697         2.917844
 H        -1.634542        -0.983334         2.087387
 H        -4.464789         1.039684         2.619012
 H        -3.632432         2.760265         2.520554
 H        -5.416238         1.527127         0.354228
 H        -4.194357         2.924192         0.131894
 H        -3.018495        -0.712960         0.345329
