19
Iteration:  4212
 O        -0.048637         0.066536        -0.077148
 C        -0.981956         0.539234         0.735554
 C        -1.328729         2.102213         1.038655
 C        -2.317572         1.215688         1.728153
 C        -1.301722         0.217452         2.313175
 C        -3.809538         1.585933         1.960494
 C        -4.160050         1.837770         0.494893
 O        -3.372127         0.900264        -0.305720
 C        -2.554376         0.244093         0.540750
 H         0.479322         0.716533        -0.592339
 H        -0.492232         2.618685         1.568178
 H        -1.538466         2.654921         0.196935
 H        -0.597122         0.546387         3.006815
 H        -1.745274        -0.819495         2.263184
 H        -4.265891         0.738008         2.443179
 H        -4.124306         2.347645         2.717771
 H        -5.221395         1.773408         0.185534
 H        -3.876613         2.826413         0.115124
 H        -2.919239        -0.829278         0.621258
