19
Iteration:  3661charge 0 multiplicity 1
 O         0.109058        -0.122544         0.059662
 C        -1.037160         0.538124         0.691040
 C        -1.318482         2.089616         0.928402
 C        -2.435351         1.171096         1.785805
 C        -1.199397         0.337824         2.117738
 C        -3.852248         1.591982         2.091638
 C        -4.333355         1.573222         0.640162
 O        -3.265234         1.199884        -0.390481
 C        -2.517686         0.401627         0.475619
 H        -0.045309        -0.269961        -0.890296
 H        -0.752032         2.792748         1.601642
 H        -1.739309         2.689878         0.117224
 H        -0.341985         0.721119         2.651200
 H        -1.534509        -0.784478         2.390960
 H        -4.316963         0.708903         2.570521
 H        -3.997332         2.512000         2.717080
 H        -5.231285         0.974646         0.497571
 H        -4.705274         2.556666         0.304486
 H        -2.980409        -0.619511         0.707469
