19
Iteration:  2056charge 0 multiplicity 1
 O         0.035654        -0.009535        -0.201778
 C        -0.936302         0.565663         0.699445
 C        -1.305414         2.047332         1.001391
 C        -2.415086         1.123753         1.808328
 C        -1.222990         0.213232         2.272484
 C        -3.841832         1.646904         2.023326
 C        -4.238343         1.927988         0.513462
 O        -3.424016         0.959162        -0.322240
 C        -2.561068         0.261407         0.555522
 H         0.885908         0.185264         0.297461
 H        -0.728905         2.739987         1.583231
 H        -1.723388         2.470189         0.099360
 H        -0.517071         0.664005         2.933829
 H        -1.364249        -0.842800         2.534183
 H        -4.492838         0.843929         2.364476
 H        -3.922385         2.566044         2.696656
 H        -5.273252         1.585128         0.565253
 H        -4.076702         2.939620         0.176964
 H        -2.803189        -0.828615         0.772541
