19
Iteration:  3975charge 0 multiplicity 1
 O         0.146200        -0.038874         0.025108
 C        -0.950565         0.505603         0.771998
 C        -1.286147         2.004833         0.820642
 C        -2.384057         1.105899         1.726659
 C        -1.189750         0.288760         2.302480
 C        -3.800475         1.617933         2.052172
 C        -4.296953         1.759006         0.573447
 O        -3.411559         1.174782        -0.338392
 C        -2.635069         0.257229         0.455532
 H        -0.010550         0.646671        -0.685442
 H        -0.893514         2.745955         1.589357
 H        -1.750923         2.533587         0.032755
 H        -0.604843         0.883807         2.919740
 H        -1.429701        -0.808069         2.436061
 H        -4.336442         0.751858         2.466768
 H        -4.059093         2.509509         2.692642
 H        -5.192856         1.050997         0.673418
 H        -4.430433         2.846575         0.136857
 H        -2.998264        -0.851589         0.454725
