19
Iteration:  3359
 O         0.152244         0.014037        -0.016212
 C        -1.026037         0.467634         0.686710
 C        -1.315420         1.967814         0.925930
 C        -2.379266         1.133434         1.746621
 C        -1.166765         0.359682         2.251931
 C        -3.808235         1.539775         2.056047
 C        -4.276269         1.837421         0.570060
 O        -3.470549         0.991190        -0.335867
 C        -2.600843         0.337615         0.507537
 H         0.304335         0.513006        -0.849173
 H        -0.588421         2.515565         1.544427
 H        -1.681312         2.463111         0.010195
 H        -0.566805         1.134531         2.865097
 H        -1.386851        -0.620790         2.752057
 H        -4.447200         0.728753         2.405939
 H        -3.954434         2.393886         2.740964
 H        -5.316496         1.850636         0.371199
 H        -4.026053         2.927095         0.386883
 H        -2.847614        -0.762747         0.605737
