19
Iteration:   285
 O        -0.019953         0.120713         0.016207
 C        -0.996777         0.547741         0.745421
 C        -1.369168         1.988268         0.974415
 C        -2.422570         1.107759         1.784125
 C        -1.343132         0.210370         2.253335
 C        -3.687371         1.699447         1.994420
 C        -4.182442         1.823414         0.471841
 O        -3.334608         1.005145        -0.378318
 C        -2.481517         0.251512         0.472449
 H        -0.239300        -0.800314        -0.102504
 H        -0.834581         2.577977         1.652223
 H        -1.822663         2.473528         0.135714
 H        -0.716622         0.627598         2.964025
 H        -1.523195        -0.774140         2.560691
 H        -4.335598         1.104646         2.605654
 H        -3.516777         2.630608         2.604025
 H        -5.243304         1.484697         0.390840
 H        -4.093443         2.905152         0.130916
 H        -2.680626        -0.824413         0.632876
