19
Iteration:  4339charge 0 multiplicity 1
 O         0.224607         0.000032         0.020346
 C        -0.994599         0.560176         0.628737
 C        -1.158259         1.993130         1.057178
 C        -2.403055         1.258563         1.727406
 C        -1.232097         0.268321         2.189749
 C        -3.871036         1.729129         2.010037
 C        -4.546549         1.568383         0.558093
 O        -3.359711         1.084319        -0.361196
 C        -2.521814         0.389274         0.474908
 H        -0.210773        -0.834008        -0.261806
 H        -0.490834         2.343561         1.896080
 H        -1.369384         2.818644         0.374015
 H        -0.364090         0.286279         2.930240
 H        -1.660987        -0.689704         2.369653
 H        -4.298545         1.027250         2.781508
 H        -3.904284         2.785209         2.256424
 H        -5.282243         0.780536         0.547228
 H        -5.074272         2.505921         0.266079
 H        -2.921530        -0.609439         0.672121
