19
Iteration:  1276
 O         0.095439        -0.039741         0.037092
 C        -1.007226         0.474231         0.684099
 C        -1.255792         1.993242         1.105164
 C        -2.419093         1.100022         1.686125
 C        -1.443956         0.145567         2.175730
 C        -3.659904         1.795460         2.103207
 C        -4.396426         1.759611         0.580753
 O        -3.335261         1.090186        -0.389729
 C        -2.480715         0.379305         0.362498
 H         0.551823         0.733284        -0.301876
 H        -0.672546         2.472791         1.852686
 H        -1.570303         2.615732         0.202170
 H        -0.655009         0.502829         2.863037
 H        -1.682802        -0.925936         2.233538
 H        -4.338216         1.156107         2.584255
 H        -3.521185         2.695560         2.663955
 H        -5.295264         1.099898         0.773837
 H        -4.678798         2.754651         0.122950
 H        -2.818601        -0.728060         0.410797
