19
Iteration:  2875
 O         0.035623         0.057143        -0.134151
 C        -1.036410         0.546268         0.618018
 C        -1.262256         1.993181         1.050667
 C        -2.399707         1.128954         1.717223
 C        -1.230344         0.233918         2.240768
 C        -3.689730         1.883530         2.008398
 C        -4.424523         1.586337         0.622561
 O        -3.374059         1.041141        -0.329709
 C        -2.541583         0.243864         0.495013
 H         0.817205         0.116072         0.478020
 H        -0.614401         2.302918         1.844358
 H        -1.680826         2.692072         0.322611
 H        -0.503489         0.651986         2.923541
 H        -1.440055        -0.888594         2.456320
 H        -4.252120         1.563687         2.919761
 H        -3.498465         2.944457         2.170957
 H        -5.223932         0.757543         0.600338
 H        -4.623032         2.586499         0.131930
 H        -3.032563        -0.735139         0.666768
