19
Iteration:   635charge 0 multiplicity 1
 O         0.130308         0.005885         0.067321
 C        -0.996675         0.493160         0.676416
 C        -1.223719         2.063166         0.951848
 C        -2.441045         1.327300         1.736581
 C        -1.236090         0.144636         2.180025
 C        -3.878638         1.592161         1.920843
 C        -4.350753         1.739904         0.472091
 O        -3.322844         1.107028        -0.278061
 C        -2.551246         0.343699         0.618661
 H        -0.280881        -0.844625        -0.296096
 H        -0.432611         2.683575         1.409693
 H        -1.620205         2.551590         0.113421
 H        -0.404232         0.405130         2.900352
 H        -1.700461        -0.822114         2.287807
 H        -4.215562         0.713394         2.379726
 H        -3.998529         2.436608         2.559271
 H        -5.328737         1.398830         0.375704
 H        -4.317618         2.785452         0.085960
 H        -2.953273        -0.596843         1.018642
