19
Iteration:  3828
 O         0.049836        -0.137661        -0.074183
 C        -1.004596         0.613528         0.646999
 C        -1.280982         2.170706         1.062313
 C        -2.350368         1.286993         1.738941
 C        -1.198081         0.309508         2.183693
 C        -3.798564         1.494480         2.013325
 C        -4.313442         1.751752         0.586826
 O        -3.488118         1.011445        -0.374402
 C        -2.508833         0.280740         0.473684
 H         0.824639        -0.121252         0.522217
 H        -0.660568         2.527385         1.879347
 H        -1.523215         3.035235         0.393126
 H        -0.424970         0.671189         2.999036
 H        -1.576162        -0.635421         2.550286
 H        -4.106396         0.569842         2.579590
 H        -4.078600         2.383538         2.560970
 H        -5.357748         1.477082         0.503313
 H        -4.181993         2.890842         0.348675
 H        -2.927130        -0.718745         0.494045
