19
Iteration:  1457charge 0 multiplicity 1
 O         0.047365         0.136355        -0.076918
 C        -0.964707         0.512868         0.697701
 C        -1.194316         1.966895         1.255515
 C        -2.409892         1.080116         1.791071
 C        -1.217795         0.002448         2.178997
 C        -3.851128         1.719962         1.939745
 C        -4.279563         1.947759         0.454765
 O        -3.387500         1.039012        -0.405551
 C        -2.522568         0.312570         0.551465
 H        -0.268095        -0.607157        -0.664107
 H        -0.621862         2.390128         2.068851
 H        -1.769122         2.697138         0.597592
 H        -0.551190         0.448267         2.981649
 H        -1.619497        -0.998452         2.351938
 H        -4.463505         0.880329         2.380131
 H        -3.865174         2.698311         2.473331
 H        -5.452808         1.801575         0.424122
 H        -4.010653         3.008394         0.114248
 H        -3.125682        -0.675562         0.692700
