19
Iteration:  4832
 O         0.121361         0.161110        -0.077400
 C        -0.977000         0.577608         0.693949
 C        -1.204376         2.072571         1.068224
 C        -2.361734         1.244251         1.808384
 C        -1.301618         0.189027         2.263489
 C        -3.857935         1.600112         2.031822
 C        -4.258659         1.710438         0.480396
 O        -3.392240         0.943220        -0.347254
 C        -2.584762         0.298368         0.522485
 H        -0.124368        -0.650849        -0.557160
 H        -0.579980         2.585838         1.737201
 H        -1.416545         2.820716         0.260098
 H        -0.643044         0.322622         3.073611
 H        -1.917837        -0.818807         2.203167
 H        -4.531788         0.847132         2.341620
 H        -3.970757         2.634635         2.416077
 H        -5.268679         1.290119         0.424539
 H        -4.138531         2.648361        -0.120850
 H        -2.990909        -0.693697         0.730500
