19
Iteration:  3924
 O        -0.003285         0.030417        -0.068124
 C        -0.895719         0.604181         0.758450
 C        -1.325436         2.049518         1.155610
 C        -2.365337         1.217885         1.754817
 C        -1.154069         0.159943         2.184491
 C        -3.794004         1.648148         1.959536
 C        -4.257220         1.879312         0.438816
 O        -3.528441         0.815061        -0.344258
 C        -2.467872         0.342699         0.602538
 H        -0.341581         0.504353        -0.866504
 H        -0.679112         2.680784         1.783314
 H        -1.558663         2.585995         0.223333
 H        -0.506796         0.671829         2.931277
 H        -1.420239        -0.896607         2.344064
 H        -4.460841         0.860575         2.349168
 H        -3.999101         2.573486         2.493173
 H        -5.288236         1.575114         0.474046
 H        -3.935411         2.794387         0.065292
 H        -2.665022        -0.749181         0.689519
