19
Iteration:   139
 O         0.017441        -0.094922        -0.113476
 C        -0.927860         0.593383         0.731748
 C        -1.264496         1.993558         1.026773
 C        -2.402525         1.194398         1.704593
 C        -1.394808         0.229251         2.372942
 C        -3.728617         1.747299         1.991006
 C        -4.372798         1.650288         0.538061
 O        -3.347172         1.049920        -0.370618
 C        -2.446983         0.338313         0.481277
 H         0.848260         0.467881        -0.158542
 H        -0.585134         2.617882         1.666753
 H        -1.570990         2.670837         0.210991
 H        -0.903758         0.737173         3.280853
 H        -1.809621        -0.818001         2.288816
 H        -4.264731         1.100005         2.791445
 H        -3.699257         2.776938         2.304018
 H        -5.347357         1.124670         0.505176
 H        -4.560537         2.750877         0.223629
 H        -2.850412        -0.716619         0.605485
