19
Iteration:  2905
 O         0.063879        -0.103694        -0.034967
 C        -0.961748         0.593990         0.674960
 C        -1.290422         2.011980         0.945850
 C        -2.336309         1.186333         1.693360
 C        -1.221256         0.225824         2.237112
 C        -3.766244         1.725335         2.030825
 C        -4.409222         1.709106         0.617879
 O        -3.442536         1.023889        -0.300312
 C        -2.489387         0.373657         0.492306
 H         0.665330         0.596893        -0.324924
 H        -0.705178         2.670297         1.615147
 H        -1.744799         2.509958         0.079291
 H        -0.456032         0.529010         2.898858
 H        -1.411975        -0.856362         2.346899
 H        -4.180742         0.906232         2.565125
 H        -3.903824         2.585491         2.683259
 H        -5.418147         1.282453         0.369384
 H        -4.652583         2.721394         0.263302
 H        -2.915619        -0.631430         0.696454
