19
Iteration:  3128
 O        -0.044492         0.045600        -0.161260
 C        -0.979553         0.570635         0.719934
 C        -1.234787         2.019225         1.099889
 C        -2.397228         1.167515         1.828850
 C        -1.282087         0.191300         2.182960
 C        -3.737651         1.804556         2.035225
 C        -4.307895         1.650730         0.502046
 O        -3.374224         0.930513        -0.346317
 C        -2.515400         0.318710         0.549253
 H         0.809257         0.483251        -0.101062
 H        -0.592556         2.490593         1.833908
 H        -1.639519         2.702925         0.385624
 H        -0.468914         0.531318         2.746812
 H        -1.558626        -0.878656         2.182772
 H        -4.465516         1.519895         2.763186
 H        -3.613648         2.836181         2.245845
 H        -5.341832         1.061227         0.488274
 H        -4.572722         2.642605        -0.026838
 H        -2.881793        -0.729065         0.717795
