19
Iteration:  1223charge 0 multiplicity 1
 O         0.116427        -0.019696         0.031979
 C        -1.010466         0.481867         0.662404
 C        -1.302568         2.044276         1.077261
 C        -2.332611         1.174600         1.690577
 C        -1.273451         0.180682         2.201778
 C        -3.851349         1.550428         2.023525
 C        -4.380418         1.850965         0.561798
 O        -3.314497         1.191119        -0.383029
 C        -2.532372         0.316059         0.486491
 H        -0.151860        -0.820486        -0.439904
 H        -0.497876         2.383143         1.639378
 H        -1.453635         2.656349         0.196746
 H        -0.529843         0.510076         2.936126
 H        -1.686744        -0.830355         2.476650
 H        -4.303489         0.766705         2.553099
 H        -3.980347         2.519803         2.500225
 H        -5.452138         1.650111         0.443864
 H        -4.131813         2.863267         0.412903
 H        -2.916096        -0.663416         0.586499
