19
Iteration:  2178charge 0 multiplicity 1
 O         0.166371        -0.184093         0.007407
 C        -0.954389         0.515098         0.638128
 C        -1.320677         2.075866         0.955381
 C        -2.375278         1.277183         1.742285
 C        -1.178344         0.304394         2.088503
 C        -3.888266         1.619669         2.099040
 C        -4.376674         1.742959         0.592952
 O        -3.418618         1.041788        -0.345512
 C        -2.536425         0.342293         0.551071
 H         0.846459         0.463763        -0.250492
 H        -0.600631         2.636374         1.525770
 H        -1.739602         2.720716         0.145824
 H        -0.526583         0.723224         2.861622
 H        -1.317154        -0.825590         2.282884
 H        -4.430396         0.782586         2.647887
 H        -4.056143         2.561662         2.695003
 H        -5.467356         1.421068         0.376356
 H        -4.437064         2.805184         0.406167
 H        -3.149147        -0.593499         0.843719
