19
Iteration:   472
 O         0.093803        -0.023862         0.091884
 C        -1.030369         0.446710         0.671099
 C        -1.287785         2.020321         0.965528
 C        -2.409305         1.209335         1.794654
 C        -1.180431         0.198214         2.208380
 C        -3.868667         1.586446         2.037542
 C        -4.411966         1.802362         0.453531
 O        -3.251745         1.209273        -0.361036
 C        -2.561523         0.278355         0.532201
 H         0.236497        -0.542361        -0.718177
 H        -0.481899         2.431804         1.551213
 H        -1.669534         2.641157         0.133068
 H        -0.423876         0.860475         2.655974
 H        -1.343478        -0.821558         2.564888
 H        -4.287941         0.868106         2.739460
 H        -4.045576         2.537712         2.591681
 H        -5.316131         1.286887         0.140798
 H        -4.483366         2.878122         0.184981
 H        -3.129401        -0.646378         0.649075
