19
Iteration:  3286charge 0 multiplicity 1
 O         0.006680         0.182477        -0.201279
 C        -0.998856         0.497393         0.703145
 C        -1.291923         1.939415         1.032503
 C        -2.379653         1.087777         1.808649
 C        -1.240086         0.199525         2.282795
 C        -3.722439         1.831894         2.013930
 C        -4.282911         1.796783         0.421640
 O        -3.427227         0.858661        -0.294710
 C        -2.549764         0.255040         0.572188
 H         0.790390         0.585319         0.190750
 H        -0.582300         2.443480         1.707871
 H        -1.797076         2.604650         0.358764
 H        -0.465332         0.736802         2.846720
 H        -1.393001        -0.789270         2.598958
 H        -4.391475         1.122418         2.554674
 H        -3.765951         2.841324         2.474600
 H        -5.394964         1.426181         0.497780
 H        -4.278955         2.781690         0.002587
 H        -2.886718        -0.755980         0.812350
