19
Iteration:    14charge 0 multiplicity 1
 O         0.020660        -0.116559        -0.015209
 C        -0.942963         0.566666         0.824307
 C        -1.272840         2.115541         0.961871
 C        -2.366929         1.278233         1.817002
 C        -1.130802         0.146818         2.204048
 C        -3.787057         1.738747         2.012559
 C        -4.419305         1.691269         0.419311
 O        -3.405330         1.008473        -0.392381
 C        -2.584420         0.360080         0.604431
 H         0.860448         0.473628        -0.052363
 H        -0.610969         2.943819         1.388258
 H        -1.613842         2.247290        -0.105668
 H        -0.308195         0.464100         2.849852
 H        -1.527588        -0.971976         2.242114
 H        -4.266358         0.941267         2.504726
 H        -3.907950         2.716044         2.587916
 H        -5.388871         1.141404         0.375897
 H        -4.539825         2.616653        -0.017156
 H        -2.970756        -0.656955         0.764876
