19
Iteration:  4438charge 0 multiplicity 1
 O         0.101517         0.058765        -0.021478
 C        -0.916948         0.570380         0.726523
 C        -1.339851         2.108810         0.963973
 C        -2.382244         1.174833         1.729041
 C        -1.329994         0.254454         2.262148
 C        -3.786342         1.620854         2.063037
 C        -4.189861         1.785252         0.471365
 O        -3.527125         0.855518        -0.296121
 C        -2.511472         0.266827         0.451757
 H         0.687898         0.722631        -0.371755
 H        -0.746496         2.618339         1.774466
 H        -1.570913         2.607346         0.081193
 H        -0.585119         0.563918         2.989789
 H        -1.734352        -0.715532         2.439144
 H        -4.498017         0.891185         2.494474
 H        -3.849087         2.579164         2.610388
 H        -5.231298         1.677502         0.451644
 H        -3.886692         2.801529         0.182029
 H        -2.777243        -0.804290         0.552095
