19
Iteration:   199charge 0 multiplicity 1
 O         0.175319        -0.020544        -0.027741
 C        -0.946644         0.523488         0.732453
 C        -1.341666         2.046869         1.039201
 C        -2.422001         1.140313         1.734319
 C        -1.287123         0.270535         2.243519
 C        -3.866474         1.663823         2.027859
 C        -4.235094         1.922362         0.457033
 O        -3.463622         0.951465        -0.282834
 C        -2.459844         0.289131         0.470047
 H        -0.336922        -0.708322        -0.576169
 H        -0.700323         2.464092         1.803900
 H        -1.652155         2.740553         0.222921
 H        -0.620067         0.749967         2.913144
 H        -1.581647        -0.755680         2.468553
 H        -4.422887         0.881808         2.496005
 H        -3.764769         2.607417         2.652217
 H        -5.283989         1.677192         0.147434
 H        -3.999197         2.900515         0.065953
 H        -2.791823        -0.774865         0.462047
