19
Iteration:  1330charge 0 multiplicity 1
 O        -0.102533         0.068673        -0.235391
 C        -0.976635         0.509125         0.731245
 C        -1.182097         1.983688         1.177849
 C        -2.396466         1.161819         1.797227
 C        -1.359011         0.134150         2.290156
 C        -3.823903         1.814364         2.009176
 C        -4.268189         1.602199         0.491400
 O        -3.223933         1.149576        -0.380972
 C        -2.514653         0.319672         0.507915
 H         0.660020        -0.436477         0.125493
 H        -0.578698         2.429489         1.963714
 H        -1.487554         2.800329         0.434553
 H        -0.589009         0.363384         3.034024
 H        -1.664968        -0.923354         2.373058
 H        -4.608780         1.302304         2.566051
 H        -3.941469         2.813377         2.381314
 H        -5.122796         0.947346         0.410110
 H        -4.659420         2.603470         0.127580
 H        -3.006839        -0.727843         0.512784
