19
Iteration:  1244
 O         0.224784        -0.054390         0.124567
 C        -0.975979         0.490035         0.691090
 C        -1.141265         1.969227         0.995845
 C        -2.433908         1.148471         1.794916
 C        -1.283076         0.163984         2.144513
 C        -3.859598         1.644136         2.041137
 C        -4.362088         1.797013         0.541421
 O        -3.465954         1.197499        -0.358107
 C        -2.578235         0.418151         0.421619
 H        -0.025371        -0.293834        -0.829621
 H        -0.411339         2.402993         1.613772
 H        -1.340812         2.725318         0.165478
 H        -0.503119         0.425718         2.901385
 H        -1.413485        -0.975139         2.241765
 H        -4.447567         0.844983         2.263704
 H        -3.959438         2.510724         2.658136
 H        -5.380053         1.203902         0.554790
 H        -4.530486         2.863523         0.281087
 H        -2.992955        -0.606525         0.463214
