19
Iteration:  2106
 O         0.077677         0.227897        -0.131938
 C        -0.966999         0.525533         0.636054
 C        -1.318984         1.896582         1.020943
 C        -2.385174         1.142661         1.843825
 C        -1.240132         0.154227         2.257400
 C        -3.836316         1.768096         1.930617
 C        -4.228204         1.891090         0.457951
 O        -3.433755         0.836782        -0.264853
 C        -2.526971         0.328724         0.656237
 H        -0.164781        -0.559609        -0.634743
 H        -0.356108         2.333853         1.510615
 H        -1.724351         2.664295         0.298121
 H        -0.407198         0.518191         2.998765
 H        -1.513873        -0.907100         2.410298
 H        -4.476353         0.959713         2.346660
 H        -3.897463         2.625799         2.537039
 H        -5.255929         1.564319         0.480178
 H        -4.123663         2.922387         0.002504
 H        -2.826344        -0.679634         0.900223
