19
Iteration:  2550
 O        -0.052195         0.041415        -0.241918
 C        -0.929761         0.456366         0.720108
 C        -1.185563         1.979871         1.073352
 C        -2.384165         1.245987         1.763323
 C        -1.299676         0.170338         2.322904
 C        -3.761521         1.885739         1.892170
 C        -4.411600         1.422785         0.600229
 O        -3.392597         1.159122        -0.287881
 C        -2.460339         0.359384         0.556816
 H         0.798234         0.528230        -0.379038
 H        -0.281022         2.437457         1.620950
 H        -1.511530         2.568205         0.198446
 H        -0.500498         0.498251         3.017254
 H        -1.472262        -0.928645         2.555111
 H        -4.393895         1.636633         2.764188
 H        -3.731511         2.933512         2.042927
 H        -5.036171         0.407504         0.617083
 H        -5.142175         2.088374         0.108751
 H        -2.903001        -0.662157         0.915336
