19
Iteration:  2184
 O         0.134058        -0.135202        -0.016655
 C        -0.947561         0.488307         0.622331
 C        -1.273702         2.038496         0.981421
 C        -2.369895         1.293303         1.776067
 C        -1.214715         0.274539         2.156722
 C        -3.856348         1.647860         2.107828
 C        -4.422467         1.719193         0.550595
 O        -3.426441         1.052697        -0.357210
 C        -2.543581         0.330508         0.540194
 H         0.778478         0.532175        -0.232731
 H        -0.435867         2.719768         1.355237
 H        -1.589495         2.548706         0.080014
 H        -0.638763         0.953465         2.876555
 H        -1.286072        -0.808783         2.330941
 H        -4.216066         0.768677         2.583554
 H        -4.060244         2.467521         2.786414
 H        -5.397045         1.368140         0.383885
 H        -4.471666         2.837652         0.338405
 H        -2.945017        -0.625171         0.792213
