19
Iteration:  4699charge 0 multiplicity 1
 O         0.005767         0.118483        -0.037782
 C        -0.964269         0.622754         0.740933
 C        -1.285790         2.053526         1.049091
 C        -2.377853         1.148094         1.819588
 C        -1.236922         0.197284         2.211880
 C        -3.828016         1.614777         1.997085
 C        -4.281544         1.650496         0.459437
 O        -3.325385         0.999740        -0.402514
 C        -2.531193         0.373204         0.593154
 H        -0.349125        -0.470293        -0.742277
 H        -0.468382         2.564350         1.549894
 H        -1.567567         2.682015         0.244802
 H        -0.601863         0.297860         3.147345
 H        -1.403418        -0.919977         2.426701
 H        -4.594092         1.105570         2.650338
 H        -3.881121         2.705685         2.193435
 H        -5.175609         1.045425         0.213241
 H        -4.346118         2.754263         0.187194
 H        -2.904053        -0.615183         0.857576
