19
Iteration:  2632
 O         0.087748        -0.039732        -0.052966
 C        -0.992578         0.489360         0.689717
 C        -1.311553         2.008989         0.897028
 C        -2.361211         1.210705         1.734679
 C        -1.223167         0.303175         2.218503
 C        -3.718064         1.624718         2.058316
 C        -4.348870         1.728651         0.612234
 O        -3.432339         1.011064        -0.362870
 C        -2.577980         0.361581         0.539425
 H         0.824142         0.575532        -0.010894
 H        -0.587288         2.489854         1.483718
 H        -1.646618         2.579868         0.062268
 H        -0.509072         0.961750         2.845501
 H        -1.552365        -0.677272         2.599006
 H        -4.304205         0.782613         2.395591
 H        -3.974353         2.533097         2.672737
 H        -5.264088         1.253330         0.772078
 H        -4.527174         2.808653         0.381189
 H        -3.022223        -0.624972         0.583811
