19
Iteration:  3500
 O         0.157277        -0.071664         0.009879
 C        -0.969069         0.558049         0.587459
 C        -1.222931         2.016776         0.955404
 C        -2.358435         1.213006         1.755841
 C        -1.264370         0.245674         2.298624
 C        -3.813600         1.710584         2.016890
 C        -4.505101         1.569570         0.636865
 O        -3.408889         1.138919        -0.359899
 C        -2.487214         0.335334         0.487247
 H         0.384679         0.200800        -0.913184
 H        -0.490892         2.621940         1.590474
 H        -1.768028         2.665972         0.244711
 H        -0.300114         0.729589         2.680556
 H        -1.360869        -0.828471         2.564541
 H        -4.330775         1.084029         2.764455
 H        -3.843838         2.738694         2.454533
 H        -5.409071         0.959688         0.525319
 H        -4.952373         2.546271         0.253246
 H        -2.927603        -0.627015         0.713530
