19
Iteration:  2033
 O         0.090415        -0.012249         0.049414
 C        -1.028388         0.483554         0.668090
 C        -1.299697         1.924222         0.849269
 C        -2.373608         1.256337         1.768039
 C        -1.174153         0.199927         2.170680
 C        -3.848576         1.561310         2.016002
 C        -4.307244         1.836641         0.577397
 O        -3.430068         1.083551        -0.304128
 C        -2.532940         0.351141         0.536809
 H         0.327760         0.845161        -0.321025
 H        -0.538036         2.385184         1.445489
 H        -1.597067         2.431753        -0.004894
 H        -0.318501         0.499953         2.841873
 H        -1.634486        -0.757597         2.470867
 H        -4.292352         0.717613         2.488219
 H        -3.995049         2.485048         2.629469
 H        -5.361449         1.701234         0.331613
 H        -4.033656         2.880611         0.513576
 H        -2.827207        -0.734378         0.781936
