19
Iteration:  4561charge 0 multiplicity 1
 O        -0.029267         0.057625        -0.141049
 C        -0.996624         0.563014         0.727073
 C        -1.388066         2.026957         1.033658
 C        -2.371767         1.222518         1.783259
 C        -1.276957         0.233380         2.228702
 C        -3.833404         1.770360         2.025458
 C        -4.354160         1.489529         0.487187
 O        -3.234472         1.055237        -0.319237
 C        -2.415182         0.297218         0.501042
 H         0.779271         0.161729         0.349488
 H        -0.497991         2.435415         1.610151
 H        -1.672438         2.860635         0.264621
 H        -0.645153         0.510696         2.997139
 H        -1.497437        -0.877720         2.362921
 H        -4.215131         1.257395         2.928711
 H        -4.171891         2.804142         2.404737
 H        -5.242100         0.890093         0.299914
 H        -4.473263         2.516062         0.126540
 H        -2.986312        -0.642538         0.711701
