19
Iteration:  2854
 O        -0.016944         0.146377        -0.195380
 C        -0.955485         0.501516         0.770701
 C        -1.259773         2.016745         1.005639
 C        -2.321083         1.217085         1.805184
 C        -1.298450         0.111187         2.220316
 C        -3.717888         1.899331         1.945443
 C        -4.384674         1.525472         0.573220
 O        -3.397766         1.065909        -0.306462
 C        -2.476338         0.303128         0.571112
 H         0.625067        -0.461896         0.158393
 H        -0.474215         2.503187         1.541794
 H        -1.673124         2.349597         0.049204
 H        -0.614429         0.411694         3.023405
 H        -1.795126        -0.917366         2.475724
 H        -4.503915         1.597354         2.714105
 H        -3.609622         2.971852         2.150734
 H        -4.967283         0.572145         0.681962
 H        -5.025677         2.387548         0.150052
 H        -2.838627        -0.736639         0.516175
