19
Iteration:  4395charge 0 multiplicity 1
 O         0.081522         0.045678        -0.098666
 C        -1.018385         0.482383         0.723743
 C        -1.302434         2.028520         1.051707
 C        -2.490274         1.155738         1.753673
 C        -1.182385         0.239298         2.263003
 C        -3.855614         1.729933         1.993683
 C        -4.283135         1.676211         0.443841
 O        -3.312087         1.030251        -0.293104
 C        -2.522374         0.267978         0.563327
 H        -0.087040         0.628897        -0.843576
 H        -0.519399         2.511866         1.753048
 H        -1.603292         2.675410         0.269293
 H        -0.489392         0.871493         2.833806
 H        -1.378460        -0.776791         2.597212
 H        -4.497894         1.167594         2.695228
 H        -3.913967         2.738124         2.469106
 H        -5.104696         1.013628         0.349542
 H        -4.469412         2.709478         0.070953
 H        -2.865718        -0.764498         0.695128
