19
Iteration:  4680charge 0 multiplicity 1
 O         0.071544         0.085642        -0.075054
 C        -1.010155         0.532159         0.725735
 C        -1.342636         1.999697         1.098166
 C        -2.423678         1.198752         1.813778
 C        -1.184795         0.176927         2.258322
 C        -3.843060         1.818687         1.979192
 C        -4.383115         1.609962         0.485389
 O        -3.232670         1.083135        -0.332253
 C        -2.497015         0.244214         0.485233
 H        -0.267554        -0.088038        -0.992619
 H        -0.771825         2.660030         1.763168
 H        -1.736249         2.639890         0.250173
 H        -0.416067         0.569631         2.855890
 H        -1.382734        -0.877102         2.673479
 H        -4.314680         1.105392         2.629213
 H        -4.052706         2.774439         2.541445
 H        -5.183458         0.831336         0.326774
 H        -4.667822         2.486226        -0.090647
 H        -2.882649        -0.804405         0.549844
