19
Iteration:  1780
 O        -0.169124         0.101602        -0.164886
 C        -0.982823         0.567756         0.726660
 C        -1.286967         1.939097         1.140825
 C        -2.374852         1.115010         1.821285
 C        -1.342756         0.169912         2.357988
 C        -3.809982         1.557903         1.956197
 C        -4.073586         1.936139         0.491211
 O        -3.392574         1.058780        -0.374606
 C        -2.469411         0.218034         0.433267
 H         0.741453         0.481960        -0.091090
 H        -0.568397         2.282538         1.840295
 H        -1.583080         2.770052         0.447837
 H        -0.577676         0.418431         3.135256
 H        -1.655236        -0.827079         2.475863
 H        -4.391708         0.707548         2.399691
 H        -3.795496         2.468420         2.579056
 H        -5.160556         1.893192         0.172799
 H        -3.670497         2.959224         0.247955
 H        -2.756180        -0.811494         0.424723
