19
Iteration:  2095
 O        -0.004083         0.216411        -0.178254
 C        -1.016346         0.564826         0.760956
 C        -1.280004         2.030934         1.076230
 C        -2.390433         1.158862         1.857729
 C        -1.194826         0.125678         2.230201
 C        -3.766546         1.756013         1.982500
 C        -4.202175         1.847894         0.465065
 O        -3.454753         0.822928        -0.358092
 C        -2.536851         0.247546         0.597128
 H        -0.013577        -0.746223        -0.263258
 H        -0.634626         2.646987         1.787631
 H        -1.573715         2.497594         0.110286
 H        -0.384171         0.474986         2.973795
 H        -1.531045        -0.906540         2.438342
 H        -4.512916         1.125281         2.513736
 H        -3.780539         2.711284         2.455919
 H        -5.269959         1.682844         0.278912
 H        -3.954374         2.841308         0.009486
 H        -2.837501        -0.779057         0.772624
