19
Iteration:  3101charge 0 multiplicity 1
 O        -0.029580        -0.024422        -0.167664
 C        -0.995617         0.502308         0.716433
 C        -1.242298         1.981916         0.951475
 C        -2.321736         1.234855         1.773806
 C        -1.276009         0.286510         2.347864
 C        -3.743916         1.568248         2.017598
 C        -4.399065         1.747939         0.542995
 O        -3.340033         1.076990        -0.334643
 C        -2.504143         0.330520         0.547635
 H         0.724819         0.568362        -0.154731
 H        -0.645178         2.590817         1.683456
 H        -1.685611         2.617839         0.135243
 H        -0.373089         0.712044         2.948804
 H        -1.855502        -0.658012         2.677306
 H        -4.287367         0.664730         2.446507
 H        -3.973909         2.550182         2.611954
 H        -5.317628         1.227519         0.329678
 H        -4.440960         2.733546         0.112006
 H        -2.915048        -0.721738         0.604944
