19
Iteration:   525
 O         0.059288         0.004183        -0.059252
 C        -0.920318         0.529983         0.769429
 C        -1.233302         2.046968         1.108742
 C        -2.425407         1.108650         1.749514
 C        -1.361055         0.236139         2.294576
 C        -3.740791         1.679605         1.939902
 C        -4.199305         1.819898         0.514226
 O        -3.541591         0.907976        -0.347980
 C        -2.505066         0.321487         0.405262
 H         0.677976         0.632055        -0.457029
 H        -0.676764         2.450305         1.937217
 H        -1.545490         2.757020         0.299047
 H        -0.721436         0.673033         3.124509
 H        -1.802939        -0.799238         2.556147
 H        -4.389228         1.177904         2.601599
 H        -3.714809         2.704324         2.292920
 H        -5.232693         1.736902         0.365538
 H        -3.892572         2.822381         0.077323
 H        -2.845060        -0.718279         0.472846
