19
Iteration:   906charge 0 multiplicity 1
 O        -0.004564        -0.074630        -0.039237
 C        -1.017945         0.546222         0.765777
 C        -1.275235         2.039506         1.066192
 C        -2.448712         1.149220         1.652977
 C        -1.304612         0.296119         2.301405
 C        -3.797783         1.630522         1.964545
 C        -4.224332         1.729890         0.556733
 O        -3.324241         1.120434        -0.396729
 C        -2.460590         0.251407         0.515522
 H        -0.018593         0.511087        -0.863243
 H        -0.609195         2.518569         1.797323
 H        -1.629909         2.614614         0.256868
 H        -0.763096         0.776708         3.111448
 H        -1.780169        -0.567998         2.534157
 H        -4.178058         0.848558         2.637413
 H        -3.704457         2.604957         2.543880
 H        -5.166828         1.214701         0.320925
 H        -4.227931         2.769922         0.335288
 H        -2.785788        -0.786346         0.557644
