19
Iteration:    33
 O         0.081758        -0.142908         0.073101
 C        -0.963997         0.522193         0.653815
 C        -1.259124         2.046567         0.955039
 C        -2.353994         1.304657         1.737104
 C        -1.195461         0.183146         2.214785
 C        -3.904370         1.756749         1.943399
 C        -4.423084         1.599634         0.539076
 O        -3.391649         1.088654        -0.327932
 C        -2.474528         0.408001         0.535689
 H         0.588304         0.424471        -0.532242
 H        -0.456999         2.399227         1.556915
 H        -1.603901         2.765043         0.269051
 H        -0.511442         0.426930         3.009959
 H        -1.524095        -0.799238         2.372971
 H        -4.314563         1.081436         2.709936
 H        -4.008824         2.742950         2.348389
 H        -5.299913         0.952099         0.605219
 H        -4.745825         2.586968         0.121348
 H        -2.746622        -0.608657         0.805379
