19
Iteration:   671charge 0 multiplicity 1
 O         0.112138        -0.023295         0.006284
 C        -0.974652         0.528169         0.830061
 C        -1.291719         2.000463         1.104666
 C        -2.421178         1.081388         1.609463
 C        -1.355539         0.230821         2.301642
 C        -3.686379         1.858538         1.983296
 C        -4.367911         1.611993         0.556780
 O        -3.400486         1.110985        -0.438374
 C        -2.475713         0.288096         0.426132
 H        -0.022852         0.248283        -0.931103
 H        -0.616286         2.403491         1.871281
 H        -1.557448         2.637667         0.236134
 H        -0.682992         0.847723         2.949914
 H        -1.423671        -0.780292         2.717274
 H        -4.394549         1.362129         2.700571
 H        -3.386471         2.872972         2.329674
 H        -5.248344         0.877800         0.715052
 H        -4.736663         2.584875         0.240881
 H        -2.914044        -0.697389         0.472900
