19
Iteration:   518charge 0 multiplicity 1
 O         0.058311        -0.049629        -0.043444
 C        -0.963411         0.567966         0.774163
 C        -1.233838         2.077675         1.073799
 C        -2.412294         1.105115         1.666825
 C        -1.359742         0.182322         2.370136
 C        -3.757255         1.663098         1.996308
 C        -4.251950         1.828126         0.507137
 O        -3.511417         0.934746        -0.397584
 C        -2.444276         0.344485         0.433059
 H         0.478060         0.716824        -0.576771
 H        -0.642003         2.638248         1.873335
 H        -1.533995         2.576914         0.196099
 H        -0.667866         0.780670         2.973766
 H        -1.768415        -0.751373         2.518128
 H        -4.505970         1.127782         2.692346
 H        -3.590959         2.643932         2.518795
 H        -5.394776         1.739679         0.327493
 H        -3.936098         2.825959         0.301741
 H        -2.597310        -0.743460         0.507669
