19
Iteration:   700charge 0 multiplicity 1
 O         0.121890        -0.003953         0.002672
 C        -1.014832         0.509962         0.711373
 C        -1.262330         2.005900         1.061725
 C        -2.403853         1.186144         1.817170
 C        -1.320931         0.040135         2.202868
 C        -3.789585         1.988642         1.918983
 C        -4.436579         1.524336         0.525346
 O        -3.338343         1.109620        -0.359040
 C        -2.487461         0.344590         0.547265
 H         0.624203         0.680798        -0.379460
 H        -0.395545         2.369358         1.652454
 H        -1.627036         2.543528         0.238666
 H        -0.428377         0.375982         2.830117
 H        -1.663978        -0.971601         2.305623
 H        -4.511369         1.707788         2.622142
 H        -3.458302         3.011251         1.889898
 H        -5.124583         0.683370         0.584243
 H        -4.923621         2.347384        -0.026863
 H        -2.918128        -0.678812         0.709228
