19
Iteration:  2947
 O         0.055283         0.013414        -0.065107
 C        -0.933924         0.505140         0.687454
 C        -1.346394         2.016080         0.972225
 C        -2.358898         1.213546         1.756908
 C        -1.140284         0.293963         2.272531
 C        -3.814199         1.541851         2.050404
 C        -4.318687         1.877855         0.579340
 O        -3.428598         1.005233        -0.389859
 C        -2.528027         0.302050         0.532108
 H        -0.175776        -0.632347        -0.787371
 H        -0.586160         2.575333         1.565969
 H        -1.836008         2.511599         0.140829
 H        -0.615763         0.933951         3.036768
 H        -1.268302        -0.663395         2.755368
 H        -4.251230         0.657973         2.534450
 H        -4.154042         2.376002         2.720821
 H        -5.376249         1.754674         0.356929
 H        -4.053451         2.895635         0.259513
 H        -2.898650        -0.755730         0.618526
