19
Iteration:  1171charge 0 multiplicity 1
 O         0.025951         0.231103        -0.194785
 C        -1.020867         0.449879         0.730112
 C        -1.275434         1.909721         1.198262
 C        -2.388808         1.095087         1.815960
 C        -1.258699         0.125435         2.230634
 C        -3.891758         1.730589         1.939820
 C        -4.069404         1.889554         0.409363
 O        -3.352936         1.006599        -0.323431
 C        -2.636094         0.273458         0.609924
 H         0.143836        -0.743018        -0.320786
 H        -0.548212         2.393092         1.938155
 H        -1.517184         2.642018         0.454404
 H        -0.479652         0.515057         2.822952
 H        -1.524375        -0.915910         2.458876
 H        -4.628465         0.976671         2.467891
 H        -4.065061         2.815643         2.309888
 H        -5.144424         1.667046         0.337381
 H        -3.984387         2.921633         0.037269
 H        -3.003757        -0.797741         0.709493
