19
Iteration:   667charge 0 multiplicity 1
 O         0.130515        -0.017742         0.022151
 C        -0.993552         0.515623         0.785338
 C        -1.265652         1.985635         1.091581
 C        -2.442091         1.121563         1.634610
 C        -1.342218         0.239249         2.300219
 C        -3.725463         1.819321         2.017799
 C        -4.371397         1.625429         0.543360
 O        -3.385897         1.099840        -0.454608
 C        -2.474443         0.304273         0.422861
 H        -0.106675         0.099152        -0.942525
 H        -0.538462         2.539312         1.725464
 H        -1.551043         2.583083         0.278028
 H        -0.606319         0.766803         2.964606
 H        -1.519978        -0.741011         2.729788
 H        -4.395434         1.409303         2.713861
 H        -3.466685         2.739311         2.507079
 H        -5.170376         1.037911         0.786342
 H        -4.760524         2.592438         0.214426
 H        -2.893922        -0.718790         0.525227
