19
Iteration:   915charge 0 multiplicity 1
 O         0.018387        -0.111740        -0.012827
 C        -0.964498         0.549863         0.749154
 C        -1.311781         2.103918         1.084406
 C        -2.372768         1.179241         1.701630
 C        -1.253824         0.257142         2.291547
 C        -3.782913         1.631856         1.997977
 C        -4.347133         1.707524         0.538018
 O        -3.256907         1.133253        -0.400636
 C        -2.573343         0.278590         0.428031
 H        -0.033791         0.066131        -0.992411
 H        -0.628882         2.585003         1.837311
 H        -1.531853         2.780388         0.321475
 H        -0.674096         0.691926         3.115472
 H        -1.626567        -0.763222         2.554750
 H        -4.324150         0.821146         2.562070
 H        -3.905361         2.660558         2.483389
 H        -5.314177         1.239787         0.366421
 H        -4.459566         2.723371         0.185574
 H        -2.880579        -0.692218         0.826379
