19
Iteration:   240
 O         0.072973         0.232759        -0.038942
 C        -1.021070         0.486743         0.744792
 C        -1.215483         1.927461         1.045221
 C        -2.407886         1.164584         1.799238
 C        -1.240673         0.145729         2.269252
 C        -3.776011         1.718483         1.931497
 C        -4.203840         1.976141         0.343818
 O        -3.516283         0.875560        -0.289238
 C        -2.578362         0.230901         0.563729
 H         0.468964        -0.613590        -0.134743
 H        -0.430596         2.273756         1.649515
 H        -1.489121         2.508674         0.206418
 H        -0.493203         0.447435         2.955013
 H        -1.519317        -0.840258         2.526362
 H        -4.494311         0.964891         2.289544
 H        -3.973761         2.582183         2.556563
 H        -5.290434         1.870035         0.202773
 H        -3.892315         3.025921         0.041511
 H        -2.955763        -0.791866         0.724529
