19
Iteration:  1573charge 0 multiplicity 1
 O         0.223692         0.127845        -0.011658
 C        -0.958789         0.456280         0.741210
 C        -1.146866         1.928866         1.083340
 C        -2.388066         1.132863         1.711737
 C        -1.371311         0.022329         2.192098
 C        -3.782961         1.684026         2.008979
 C        -4.454052         1.930619         0.643070
 O        -3.463024         1.084856        -0.389021
 C        -2.516157         0.382887         0.365124
 H         0.016641        -0.771428        -0.299161
 H        -0.522809         2.274746         1.931787
 H        -1.470537         2.695445         0.381330
 H        -0.740881         0.227354         3.092455
 H        -1.904448        -0.920792         2.256760
 H        -4.429549         0.995809         2.643291
 H        -3.750176         2.724416         2.398819
 H        -5.465623         1.598023         0.483571
 H        -4.316045         2.936531         0.260224
 H        -2.640407        -0.653166         0.447091
