19
Iteration:  4440charge 0 multiplicity 1
 O         0.107624         0.062472        -0.017179
 C        -0.909492         0.576665         0.716073
 C        -1.342139         2.102275         0.962391
 C        -2.384847         1.158196         1.730720
 C        -1.324239         0.279167         2.268196
 C        -3.771804         1.605188         2.052367
 C        -4.202339         1.786079         0.464368
 O        -3.533788         0.869031        -0.290652
 C        -2.521183         0.242249         0.459276
 H         0.749731         0.692052        -0.383591
 H        -0.754361         2.595097         1.775377
 H        -1.523590         2.658086         0.037570
 H        -0.599392         0.559796         2.985803
 H        -1.827096        -0.732342         2.418357
 H        -4.491151         0.941063         2.545318
 H        -3.865489         2.595074         2.614262
 H        -5.250226         1.736799         0.386227
 H        -3.855520         2.818561         0.293996
 H        -2.773370        -0.819276         0.547318
