19
Iteration:  4908charge 0 multiplicity 1
 O         0.132024         0.003684         0.035369
 C        -0.984713         0.585234         0.767312
 C        -1.251239         2.075858         0.980891
 C        -2.416402         1.243057         1.709444
 C        -1.293068         0.113140         2.191833
 C        -3.769738         1.681392         1.954789
 C        -4.364717         1.612754         0.568463
 O        -3.428701         1.100671        -0.348860
 C        -2.485802         0.304819         0.517994
 H         0.452076         0.795397        -0.474205
 H        -0.615765         2.666573         1.547326
 H        -1.574294         2.738403         0.133912
 H        -0.717941         0.213615         3.055801
 H        -1.468957        -1.012064         2.261082
 H        -4.183546         0.868808         2.541221
 H        -3.896805         2.695373         2.433764
 H        -5.275810         0.987303         0.495124
 H        -4.687537         2.599077         0.103063
 H        -2.970869        -0.659774         0.768514
