19
Iteration:  1341
 O        -0.125875         0.034510        -0.219354
 C        -1.056193         0.502393         0.753446
 C        -1.209264         2.064108         1.213897
 C        -2.361655         1.169977         1.805995
 C        -1.383372         0.138214         2.295554
 C        -3.748330         1.679523         1.969030
 C        -4.340266         1.617592         0.579841
 O        -3.202873         1.138137        -0.465330
 C        -2.470975         0.419081         0.458473
 H         0.530902        -0.529566         0.303386
 H        -0.525912         2.517519         1.926529
 H        -1.515248         2.719899         0.319582
 H        -0.644511         0.442364         3.035954
 H        -1.813294        -0.877166         2.411592
 H        -4.270772         1.098951         2.739054
 H        -3.621167         2.722223         2.137459
 H        -5.174008         0.992173         0.409967
 H        -4.414075         2.605334         0.086830
 H        -2.930123        -0.580786         0.793545
