19
Iteration:  4296charge 0 multiplicity 1
 O         0.117516         0.065663        -0.017965
 C        -0.974924         0.521397         0.694326
 C        -1.315018         2.116451         0.977972
 C        -2.388535         1.192475         1.686450
 C        -1.415365         0.170123         2.224513
 C        -3.714516         1.784716         2.054539
 C        -4.420181         1.565302         0.655897
 O        -3.320023         1.112155        -0.388817
 C        -2.503792         0.266556         0.401241
 H         0.685161        -0.501335         0.512710
 H        -0.551793         2.455415         1.727181
 H        -1.572764         2.752699         0.116462
 H        -0.639936         0.440972         3.085610
 H        -1.817052        -0.859615         2.407300
 H        -4.244834         1.206109         2.870930
 H        -3.592232         2.844438         2.344939
 H        -5.132969         0.711297         0.699666
 H        -4.783750         2.460205         0.109142
 H        -2.798240        -0.792684         0.422327
