19
Iteration:  3921charge 0 multiplicity 1
 O         0.014551         0.052729        -0.077303
 C        -0.902110         0.578771         0.754339
 C        -1.321570         2.041176         1.145724
 C        -2.351318         1.207400         1.757852
 C        -1.148826         0.149215         2.202291
 C        -3.809364         1.653187         1.959748
 C        -4.276585         1.893297         0.431496
 O        -3.525224         0.803087        -0.329770
 C        -2.478990         0.348503         0.576438
 H        -0.337920         0.458757        -0.908595
 H        -0.744281         2.733810         1.833023
 H        -1.620981         2.627297         0.296508
 H        -0.531753         0.577124         2.933447
 H        -1.395801        -0.921956         2.494312
 H        -4.426751         0.907374         2.452724
 H        -3.926185         2.643338         2.466285
 H        -5.411474         1.654269         0.399165
 H        -3.903139         2.898822        -0.005134
 H        -2.544087        -0.783066         0.754897
