19
Iteration:  4928
 O         0.220749         0.069681         0.064381
 C        -0.914782         0.547179         0.663201
 C        -1.184271         1.991362         1.085179
 C        -2.350366         1.180327         1.727848
 C        -1.377864         0.170382         2.203683
 C        -3.743360         1.717824         2.046132
 C        -4.484987         1.666733         0.565278
 O        -3.533610         0.953838        -0.387193
 C        -2.533067         0.401213         0.406303
 H         0.751844         0.759854        -0.386230
 H        -0.494651         2.622084         1.631638
 H        -1.389607         2.658788         0.175626
 H        -0.562335         0.419443         2.918297
 H        -1.925196        -0.805399         2.391782
 H        -4.254171         0.998528         2.731962
 H        -3.707391         2.771838         2.404021
 H        -5.363366         1.050475         0.447422
 H        -4.681583         2.695574         0.108982
 H        -2.781790        -0.695563         0.507874
