19
Iteration:  3570charge 0 multiplicity 1
 O         0.141001         0.095608        -0.056709
 C        -0.940083         0.526606         0.673925
 C        -1.469711         2.036177         1.069281
 C        -2.453084         1.032799         1.732435
 C        -1.054355         0.247412         2.173364
 C        -3.874633         1.747845         1.973557
 C        -4.224684         1.929033         0.539291
 O        -3.492092         0.875924        -0.303255
 C        -2.516175         0.140792         0.608153
 H        -0.146383         0.263202        -0.991713
 H        -0.891806         2.625709         1.728752
 H        -1.764521         2.696724         0.243833
 H        -0.384823         0.886510         2.868257
 H        -1.291843        -0.786342         2.610114
 H        -4.487504         1.130563         2.622546
 H        -3.781805         2.715130         2.445454
 H        -5.202089         2.022334         0.060472
 H        -3.736563         2.843599         0.349938
 H        -2.781068        -0.925539         0.720924
