19
Iteration:  2471charge 0 multiplicity 1
 O         0.122888         0.001819        -0.096351
 C        -0.985729         0.482122         0.687314
 C        -1.258113         1.960387         0.818527
 C        -2.447154         1.188199         1.740030
 C        -1.096322         0.302658         2.225739
 C        -3.855598         1.580071         2.077731
 C        -4.315045         1.798996         0.619920
 O        -3.506419         1.088016        -0.300040
 C        -2.575390         0.316885         0.546241
 H         0.966718         0.073628         0.420723
 H        -0.558816         2.559000         1.500310
 H        -1.611110         2.512756        -0.087735
 H        -0.509163         0.841845         2.898548
 H        -1.425215        -0.641685         2.693133
 H        -4.362592         0.675310         2.457393
 H        -4.165797         2.500189         2.556657
 H        -5.371008         1.429294         0.493266
 H        -4.091811         2.831996         0.278202
 H        -2.817227        -0.814816         0.675789
