19
Iteration:  1712charge 0 multiplicity 1
 O         0.162576        -0.008716         0.135866
 C        -0.967184         0.567896         0.680883
 C        -1.365588         1.945588         1.148814
 C        -2.433806         1.010207         1.679979
 C        -1.297273         0.136308         2.143877
 C        -3.647201         1.669269         2.085786
 C        -4.252125         1.862610         0.563352
 O        -3.456733         1.161358        -0.460373
 C        -2.569718         0.359656         0.391102
 H        -0.025262        -0.028818        -0.851293
 H        -0.749517         2.442110         1.915435
 H        -1.791279         2.606457         0.412950
 H        -0.716561         0.392757         3.038071
 H        -1.577625        -0.986007         2.059166
 H        -4.367032         1.035048         2.642568
 H        -3.527774         2.663475         2.446031
 H        -5.268654         1.396198         0.503424
 H        -4.356026         2.984669         0.302341
 H        -2.990366        -0.608436         0.535223
