19
Iteration:  1777
 O        -0.183203         0.107014        -0.146620
 C        -1.002135         0.561787         0.730717
 C        -1.275614         1.941158         1.121157
 C        -2.352984         1.127675         1.781588
 C        -1.330970         0.170121         2.385359
 C        -3.806255         1.554034         1.972301
 C        -4.086877         1.963318         0.499741
 O        -3.372071         1.036280        -0.379492
 C        -2.470853         0.218138         0.400184
 H         0.633459         0.589701        -0.127137
 H        -0.556361         2.345516         1.854082
 H        -1.587914         2.754744         0.472405
 H        -0.556806         0.343001         3.188647
 H        -1.757618        -0.936428         2.519208
 H        -4.365683         0.695628         2.362616
 H        -3.904202         2.355481         2.675399
 H        -5.144725         1.902063         0.225841
 H        -3.682844         2.989990         0.219876
 H        -2.771670        -0.811521         0.462648
