19
Iteration:   937
 O         0.105646        -0.111764         0.073297
 C        -0.992999         0.561791         0.712719
 C        -1.234281         2.004163         1.057920
 C        -2.420740         1.207235         1.831441
 C        -1.179337         0.171068         2.125348
 C        -3.902636         1.699514         1.987841
 C        -4.358113         1.637838         0.466081
 O        -3.386912         1.209526        -0.384887
 C        -2.486096         0.435654         0.534542
 H        -0.080652        -0.506671        -0.785086
 H        -0.407545         2.587422         1.551560
 H        -1.648801         2.568691         0.296975
 H        -0.399079         0.482119         2.855517
 H        -1.598010        -0.824820         2.334245
 H        -4.386708         0.868818         2.556985
 H        -3.959521         2.716971         2.523874
 H        -5.247558         0.999017         0.372924
 H        -4.734854         2.583453         0.133671
 H        -2.619772        -0.681254         0.694888
