19
Iteration:   505
 O         0.055773        -0.074505         0.027732
 C        -0.911752         0.563883         0.726478
 C        -1.286283         2.033102         1.000992
 C        -2.424021         1.186896         1.760887
 C        -1.334521         0.211722         2.274207
 C        -3.821189         1.646908         2.060984
 C        -4.314073         1.893106         0.532625
 O        -3.392237         1.006500        -0.427122
 C        -2.449882         0.274096         0.456431
 H         0.232780         0.402588        -0.769703
 H        -0.583472         2.682953         1.558902
 H        -1.629290         2.560654         0.115035
 H        -0.648101         0.533891         3.106707
 H        -1.475489        -0.844135         2.559530
 H        -4.260386         0.759408         2.519719
 H        -3.890910         2.557885         2.696700
 H        -5.315139         1.516411         0.318967
 H        -4.267836         2.929677         0.153406
 H        -2.755508        -0.775926         0.517543
