19
Iteration:  1590
 O         0.145279         0.150227        -0.052869
 C        -1.011227         0.472570         0.684306
 C        -1.112889         1.904664         1.163256
 C        -2.425201         1.109485         1.740859
 C        -1.357338         0.074045         2.186724
 C        -3.819849         1.722946         2.040545
 C        -4.324046         1.795878         0.494905
 O        -3.392933         1.211322        -0.378687
 C        -2.622772         0.305284         0.472708
 H         0.233278        -0.793594        -0.325699
 H        -0.323105         2.256894         1.857686
 H        -1.083190         2.641534         0.346387
 H        -0.549770         0.476226         2.792147
 H        -1.602482        -0.997090         2.455561
 H        -4.352282         0.982009         2.641004
 H        -3.744079         2.654386         2.602666
 H        -5.267089         1.176939         0.441317
 H        -4.537310         2.880715         0.198269
 H        -3.208890        -0.710685         0.627188
