19
Iteration:  1263
 O         0.169074        -0.064711         0.086487
 C        -0.908413         0.522220         0.724207
 C        -1.226028         1.985045         1.056232
 C        -2.367011         1.198198         1.651249
 C        -1.397711         0.078439         2.183879
 C        -3.730955         1.667130         2.026412
 C        -4.428211         1.780605         0.622572
 O        -3.434560         1.168477        -0.402344
 C        -2.532632         0.351787         0.394360
 H         0.316624         0.367994        -0.783292
 H        -0.649380         2.602218         1.765147
 H        -1.641370         2.680762         0.238245
 H        -0.711618         0.393444         3.018767
 H        -1.884756        -0.833502         2.473146
 H        -4.101798         1.015234         2.860307
 H        -3.638743         2.673068         2.433844
 H        -5.317232         1.225748         0.356254
 H        -4.579064         2.886849         0.345803
 H        -2.925933        -0.718538         0.574033
