19
Iteration:  1544
 O         0.223878         0.073670         0.069471
 C        -1.024081         0.514173         0.699416
 C        -1.294872         2.056725         1.068068
 C        -2.402313         1.049351         1.715145
 C        -1.315369         0.075797         2.095767
 C        -3.728599         1.588614         2.104686
 C        -4.235287         1.993506         0.562237
 O        -3.472959         1.061776        -0.383436
 C        -2.611835         0.335267         0.387570
 H         0.048644        -0.866973        -0.247239
 H        -0.805084         2.514884         1.909910
 H        -1.632447         2.912384         0.413814
 H        -0.608305         0.304464         2.978012
 H        -1.873858        -0.900473         2.228556
 H        -4.491418         0.990407         2.525076
 H        -3.660275         2.537136         2.653429
 H        -5.348298         1.774370         0.453965
 H        -3.992440         2.979930         0.210769
 H        -2.775276        -0.813301         0.436009
