19
Iteration:  1045
 O        -0.042707         0.028244        -0.130261
 C        -0.977665         0.537067         0.753001
 C        -1.218233         1.957071         1.136105
 C        -2.356723         1.145694         1.804285
 C        -1.299755         0.199776         2.240828
 C        -3.788204         1.705296         2.044985
 C        -4.351786         1.712874         0.386058
 O        -3.307408         1.138332        -0.366815
 C        -2.507090         0.366300         0.466123
 H         0.283309        -0.826560         0.097230
 H        -0.620976         2.449808         1.946906
 H        -1.607943         2.593720         0.397466
 H        -0.652112         0.684532         3.040967
 H        -1.598650        -0.889807         2.484739
 H        -4.414583         1.075831         2.666894
 H        -3.742381         2.716581         2.495410
 H        -5.197535         1.004420         0.392334
 H        -4.542879         2.680696        -0.055861
 H        -2.786563        -0.677374         0.637528
