19
Iteration:  2117
 O         0.195148         0.175212        -0.141208
 C        -1.049332         0.469096         0.657482
 C        -1.273219         1.947647         0.994273
 C        -2.367400         1.208671         1.819139
 C        -1.272024         0.198291         2.271589
 C        -3.831033         1.718475         1.974748
 C        -4.261338         1.861784         0.460240
 O        -3.451555         0.945752        -0.188321
 C        -2.558525         0.182253         0.583151
 H        -0.049192        -0.215897        -1.016484
 H        -0.442532         2.461642         1.603662
 H        -1.742606         2.644753         0.247206
 H        -0.496007         0.674856         2.971110
 H        -1.550810        -0.819940         2.567310
 H        -4.443595         0.927092         2.449912
 H        -4.053440         2.623163         2.479191
 H        -5.298143         1.634550         0.212719
 H        -4.062627         2.876430        -0.020327
 H        -2.877369        -0.819650         0.792985
