19
Iteration:  2490
 O         0.053022        -0.039458        -0.106002
 C        -0.923117         0.547570         0.674526
 C        -1.324783         2.054359         0.920971
 C        -2.318090         1.219705         1.756375
 C        -1.281715         0.266459         2.271743
 C        -3.769187         1.638727         2.113315
 C        -4.431160         1.720785         0.647836
 O        -3.403222         1.046211        -0.386756
 C        -2.518218         0.317903         0.474088
 H         0.849130        -0.140178         0.456904
 H        -0.601025         2.763561         1.313066
 H        -1.751571         2.425201        -0.043936
 H        -0.421258         0.644375         2.812439
 H        -1.545528        -0.722059         2.377722
 H        -4.176013         0.825558         2.711835
 H        -3.640530         2.661920         2.605600
 H        -5.340374         1.102065         0.451742
 H        -4.559037         2.798477         0.360822
 H        -2.896578        -0.695429         0.661568
