19
Iteration:  2545charge 0 multiplicity 1
 O        -0.049921         0.027418        -0.253172
 C        -0.897883         0.438391         0.727549
 C        -1.201558         2.009755         1.068328
 C        -2.340863         1.251191         1.794522
 C        -1.244995         0.131144         2.338191
 C        -3.765674         1.908071         1.917088
 C        -4.477245         1.412947         0.537137
 O        -3.429342         1.161302        -0.298420
 C        -2.470626         0.361168         0.568463
 H         0.804228         0.461203        -0.282750
 H        -0.400586         2.443382         1.644709
 H        -1.471867         2.704428         0.261635
 H        -0.535649         0.515272         3.091479
 H        -1.461289        -0.880930         2.595107
 H        -4.388533         1.495856         2.735764
 H        -3.639704         3.037659         2.071455
 H        -4.940279         0.462975         0.637684
 H        -5.119922         2.134597        -0.006971
 H        -2.875611        -0.586517         0.792192
