19
Iteration:  2405charge 0 multiplicity 1
 O        -0.059795         0.124472        -0.258974
 C        -1.023619         0.543554         0.642894
 C        -1.305594         1.990422         1.083767
 C        -2.374832         1.127933         1.787689
 C        -1.185620         0.224135         2.310724
 C        -3.798294         1.781922         1.927757
 C        -4.232485         1.860019         0.507796
 O        -3.415785         0.818638        -0.288088
 C        -2.514515         0.244993         0.647410
 H         0.675082         0.636606         0.091903
 H        -0.533086         2.418555         1.807082
 H        -1.597915         2.627056         0.178451
 H        -0.472963         0.593727         2.993217
 H        -1.431410        -0.802490         2.612727
 H        -4.425023         1.068439         2.442207
 H        -3.835105         2.672211         2.559231
 H        -5.241267         1.387403         0.473001
 H        -4.027332         2.865138         0.053699
 H        -2.768306        -0.881967         0.772159
