19
Iteration:  1302charge 0 multiplicity 1
 O         0.024511         0.060403        -0.134703
 C        -0.986500         0.436289         0.716017
 C        -1.250228         1.949309         1.134739
 C        -2.364354         1.104798         1.818256
 C        -1.256997         0.056337         2.254613
 C        -3.771685         1.814475         1.923890
 C        -4.414334         1.694132         0.478839
 O        -3.282876         1.179380        -0.348386
 C        -2.586944         0.338555         0.509211
 H         0.836604         0.321578         0.292594
 H        -0.617676         2.519869         1.849328
 H        -1.690361         2.522188         0.387776
 H        -0.427348         0.387766         2.866120
 H        -1.513965        -1.026252         2.373666
 H        -4.562720         1.538258         2.645112
 H        -3.684444         2.902589         2.192685
 H        -5.381970         1.106626         0.414138
 H        -4.631281         2.706379         0.175894
 H        -3.095562        -0.586333         0.634464
