19
Iteration:   839
 O         0.069298         0.100075        -0.064217
 C        -0.961736         0.557195         0.652147
 C        -1.328974         2.076093         1.044909
 C        -2.428392         1.083368         1.741492
 C        -1.330001         0.198290         2.344080
 C        -3.744959         1.735461         1.986801
 C        -4.094643         1.945455         0.473972
 O        -3.640260         0.798207        -0.372691
 C        -2.469192         0.181965         0.506341
 H         0.809434         0.286093         0.558578
 H        -0.597423         2.576700         1.734027
 H        -1.753075         2.726336         0.347266
 H        -0.696586         0.614316         3.084527
 H        -1.557738        -0.833380         2.416113
 H        -4.542671         1.124275         2.481131
 H        -3.500493         2.726240         2.487743
 H        -5.179605         2.008475         0.361259
 H        -3.612333         2.894253         0.267863
 H        -2.431080        -0.884828         0.382890
