19
Iteration:  3064
 O        -0.055097        -0.097299         0.003442
 C        -0.980681         0.594990         0.674037
 C        -1.325043         2.069461         0.910401
 C        -2.359847         1.151935         1.767069
 C        -1.169576         0.334180         2.207511
 C        -3.833275         1.499918         2.043031
 C        -4.353775         1.857317         0.576261
 O        -3.347354         1.055298        -0.312366
 C        -2.494670         0.275704         0.430087
 H         0.834472         0.232098         0.197967
 H        -0.687287         2.600968         1.615110
 H        -1.729150         2.673077         0.127073
 H        -0.212403         0.581515         2.676193
 H        -1.345960        -0.662932         2.409782
 H        -4.392315         0.716905         2.561020
 H        -3.949473         2.327157         2.730420
 H        -5.382775         1.569874         0.491850
 H        -4.309187         2.936146         0.356047
 H        -2.668011        -0.751903         0.608682
