19
Iteration:   827charge 0 multiplicity 1
 O         0.086405         0.082811        -0.138859
 C        -0.939695         0.610462         0.763506
 C        -1.349638         2.036184         1.032933
 C        -2.394204         1.103242         1.732546
 C        -1.418473         0.259513         2.370693
 C        -3.709789         1.649253         1.959812
 C        -4.119353         1.888611         0.511505
 O        -3.624608         0.861802        -0.358925
 C        -2.417405         0.199812         0.448118
 H         1.022550        -0.149663         0.194472
 H        -0.842775         2.541871         1.867880
 H        -1.482659         2.709381         0.198324
 H        -0.808678         0.667781         3.119574
 H        -1.717370        -0.767732         2.681765
 H        -4.383083         1.072967         2.681828
 H        -3.741139         2.702342         2.375463
 H        -5.177831         2.055450         0.375640
 H        -3.684378         2.783077         0.060748
 H        -2.877491        -0.745976         0.705403
