19
Iteration:   609
 O         0.032092        -0.020427        -0.079900
 C        -0.958559         0.525357         0.696738
 C        -1.279299         2.020885         1.015456
 C        -2.448756         1.140826         1.789531
 C        -1.270530         0.356138         2.378976
 C        -3.839648         1.606614         1.980289
 C        -4.231929         1.787019         0.506899
 O        -3.411762         1.058769        -0.412399
 C        -2.475622         0.293415         0.452270
 H         0.177825        -0.865302         0.395839
 H        -0.516541         2.466645         1.655072
 H        -1.702614         2.766379         0.243683
 H        -0.647827         0.915919         3.017918
 H        -1.399984        -0.737167         2.583738
 H        -4.270991         0.637431         2.382980
 H        -4.074366         2.523155         2.595680
 H        -5.334875         1.849517         0.351600
 H        -3.832201         2.811870         0.373690
 H        -2.751379        -0.786309         0.561365
