19
Iteration:  3761
 O        -0.016346         0.121803        -0.137724
 C        -1.005047         0.485176         0.751260
 C        -1.264203         1.948173         1.041282
 C        -2.382227         1.083781         1.792759
 C        -1.246681         0.197666         2.288394
 C        -3.699304         1.880196         2.063079
 C        -4.401019         1.608615         0.499235
 O        -3.332463         1.083149        -0.408952
 C        -2.560492         0.219442         0.528517
 H         0.508027         0.890500        -0.379163
 H        -0.605196         2.472682         1.787997
 H        -1.474573         2.613739         0.218415
 H        -0.425677         0.667919         2.941638
 H        -1.481435        -0.846486         2.727011
 H        -4.445145         1.429667         2.778252
 H        -3.607931         2.949131         2.308448
 H        -5.113691         0.774786         0.571127
 H        -4.781186         2.513195        -0.047705
 H        -2.765052        -0.866977         0.398401
