19
Iteration:  1339charge 0 multiplicity 1
 O        -0.122383         0.042865        -0.227402
 C        -1.059274         0.494084         0.755133
 C        -1.196884         2.053891         1.209513
 C        -2.350311         1.144809         1.803662
 C        -1.393767         0.152096         2.294996
 C        -3.763030         1.710167         1.970575
 C        -4.327856         1.604926         0.591175
 O        -3.204762         1.142470        -0.460907
 C        -2.476525         0.400706         0.469222
 H         0.526571        -0.506207         0.278290
 H        -0.553632         2.569047         1.958814
 H        -1.507681         2.765711         0.330973
 H        -0.610082         0.389743         3.046684
 H        -1.741542        -0.846423         2.375173
 H        -4.398195         1.054314         2.730958
 H        -3.674231         2.793910         2.116060
 H        -5.144867         1.012122         0.361959
 H        -4.382664         2.573100         0.041374
 H        -2.946053        -0.535778         0.766212
