19
Iteration:  3697
 O         0.090333        -0.015090         0.022842
 C        -0.929047         0.520423         0.705954
 C        -1.150710         2.014882         1.002741
 C        -2.374048         1.202274         1.682529
 C        -1.304341         0.218909         2.204328
 C        -3.754699         1.697758         1.938649
 C        -4.465373         1.557863         0.672979
 O        -3.427072         1.108963        -0.368029
 C        -2.547548         0.378306         0.473869
 H         0.383384         0.766591        -0.466452
 H        -0.575596         2.595556         1.757672
 H        -1.467773         2.523536         0.097551
 H        -0.475768         0.649608         2.839087
 H        -1.631359        -0.712535         2.568846
 H        -4.330137         1.027188         2.614488
 H        -3.769891         2.686141         2.394545
 H        -5.329909         0.909056         0.818438
 H        -4.683566         2.615175         0.299108
 H        -2.898511        -0.693299         0.560753
