19
Iteration:  1181charge 0 multiplicity 1
 O        -0.009710         0.165563        -0.216141
 C        -1.044629         0.503895         0.777382
 C        -1.284327         1.977851         1.132286
 C        -2.391231         1.111407         1.843451
 C        -1.262966         0.131701         2.310731
 C        -3.873994         1.682221         1.918954
 C        -4.210223         1.915634         0.475104
 O        -3.292077         1.023831        -0.360670
 C        -2.534990         0.235938         0.523650
 H         0.161670        -0.824222        -0.284200
 H        -0.611582         2.298233         1.931755
 H        -1.606842         2.693936         0.402626
 H        -0.503579         0.412658         3.006838
 H        -1.566124        -0.926331         2.402568
 H        -4.519499         1.014090         2.583357
 H        -3.764057         2.674903         2.483173
 H        -5.180922         1.752473         0.047389
 H        -3.831966         2.888804         0.304071
 H        -2.998341        -0.755226         0.702195
