19
Iteration:  3959charge 0 multiplicity 1
 O         0.097115        -0.046028        -0.044170
 C        -0.974667         0.502401         0.657497
 C        -1.368054         1.986136         0.976097
 C        -2.414827         1.208993         1.728739
 C        -1.266379         0.333043         2.266751
 C        -3.826221         1.529874         2.055054
 C        -4.339520         1.787866         0.583719
 O        -3.328213         1.082458        -0.352443
 C        -2.469168         0.300415         0.550489
 H         0.271427         0.427039        -0.893175
 H        -0.532421         2.447552         1.444238
 H        -1.667369         2.456150        -0.004231
 H        -0.456108         0.901224         2.886723
 H        -1.534319        -0.599531         2.751935
 H        -4.417792         0.736354         2.569803
 H        -3.915516         2.444956         2.633082
 H        -5.317184         1.593219         0.252755
 H        -4.332006         2.818145         0.418552
 H        -2.969029        -0.641130         0.604611
