19
Iteration:   389
 O         0.106795         0.137212        -0.076730
 C        -0.976517         0.491858         0.772093
 C        -1.305803         1.858019         1.084208
 C        -2.399447         1.116092         1.774304
 C        -1.224037         0.112243         2.304623
 C        -3.785931         1.904532         1.906272
 C        -4.461869         1.664368         0.451432
 O        -3.287810         1.188765        -0.363521
 C        -2.585104         0.273608         0.502423
 H         0.248491        -0.808291        -0.121205
 H        -0.480190         2.218406         1.843142
 H        -1.543616         2.496671         0.243424
 H        -0.310049         0.393224         2.954724
 H        -1.600827        -0.950712         2.497341
 H        -4.295801         1.529472         2.857572
 H        -3.581025         3.000874         1.924648
 H        -5.319678         0.954374         0.602793
 H        -4.839309         2.624045         0.145607
 H        -2.991545        -0.753226         0.682895
