19
Iteration:  4629
 O         0.146913         0.012421         0.065842
 C        -0.977452         0.573093         0.667424
 C        -1.214795         2.032217         1.008433
 C        -2.372943         1.294742         1.739001
 C        -1.325381         0.141385         2.154718
 C        -3.751811         1.761007         1.989423
 C        -4.410586         1.486594         0.538150
 O        -3.465587         1.078929        -0.325980
 C        -2.518655         0.387834         0.466863
 H         0.883353         0.626237        -0.111401
 H        -0.384761         2.467299         1.572254
 H        -1.624423         2.753249         0.270069
 H        -0.734836         0.287010         3.069301
 H        -1.723759        -0.846137         2.230961
 H        -4.216388         1.047045         2.675560
 H        -3.832798         2.721572         2.468329
 H        -5.095327         0.666482         0.711169
 H        -4.883493         2.280406        -0.002681
 H        -2.907006        -0.626340         0.645083
