19
Iteration:  4405
 O         0.065477         0.056783        -0.069773
 C        -1.000751         0.545122         0.730323
 C        -1.286722         2.035562         1.032689
 C        -2.364309         1.165766         1.816433
 C        -1.116298         0.226937         2.246916
 C        -3.883309         1.683433         1.980638
 C        -4.327466         1.734656         0.400353
 O        -3.381705         0.981986        -0.304194
 C        -2.591930         0.234750         0.586235
 H         0.245778         0.735288        -0.747344
 H        -0.644476         2.476342         1.864420
 H        -1.466106         2.780049         0.329524
 H        -0.270210         0.527195         2.895633
 H        -1.423905        -0.740160         2.508390
 H        -4.580447         1.045909         2.570608
 H        -3.793955         2.713980         2.315749
 H        -5.336177         1.430349         0.306534
 H        -4.321196         2.629190        -0.220882
 H        -2.977591        -0.783152         0.777213
