19
Iteration:  2357
 O        -0.005570        -0.085885        -0.153468
 C        -0.889767         0.567408         0.734033
 C        -1.347501         2.104684         0.976857
 C        -2.368909         1.180300         1.767563
 C        -1.285396         0.251456         2.254840
 C        -3.774192         1.749238         2.000125
 C        -4.315343         1.651118         0.579001
 O        -3.368686         1.075043        -0.275584
 C        -2.516297         0.248642         0.490691
 H         0.797737         0.468222        -0.320033
 H        -0.607284         2.563504         1.658371
 H        -1.738031         2.674507         0.144677
 H        -0.528792         0.672668         2.958227
 H        -1.527544        -0.786991         2.398096
 H        -4.288389         0.970980         2.634640
 H        -3.986569         2.766600         2.445379
 H        -5.097842         0.885755         0.746020
 H        -4.568659         2.682604         0.208694
 H        -2.976183        -0.804213         0.486704
