19
Iteration:  4891
 O         0.076418        -0.016335         0.009939
 C        -0.972433         0.542089         0.689495
 C        -1.329757         2.005600         1.015945
 C        -2.366988         1.161446         1.791896
 C        -1.256676         0.255863         2.199082
 C        -3.855409         1.638672         2.054301
 C        -4.395315         1.626150         0.494283
 O        -3.245590         1.128203        -0.369014
 C        -2.532561         0.351107         0.480153
 H         0.297355         0.514346        -0.802257
 H        -0.596609         2.453734         1.799159
 H        -1.779558         2.560147         0.191174
 H        -0.408266         0.681154         2.876152
 H        -1.532766        -0.678121         2.756224
 H        -4.521765         1.116282         2.773434
 H        -3.908450         2.635390         2.468464
 H        -5.337216         1.025564         0.498590
 H        -4.673116         2.596180         0.152734
 H        -2.793473        -0.710227         0.465228
