19
Iteration:  1436charge 0 multiplicity 1
 O         0.225497         0.045830        -0.005861
 C        -1.044433         0.528403         0.698253
 C        -1.295969         1.958726         1.180878
 C        -2.430342         1.123613         1.796435
 C        -1.332898         0.045845         2.185511
 C        -3.771405         1.746986         2.054297
 C        -4.289282         1.844305         0.457490
 O        -3.422998         1.106311        -0.344121
 C        -2.538204         0.319911         0.428649
 H        -0.086509         0.035643        -0.943055
 H        -0.514882         2.216315         1.886656
 H        -1.425840         2.586187         0.240341
 H        -0.510614         0.313507         2.882818
 H        -1.604956        -0.977936         2.104301
 H        -4.509205         1.029040         2.604062
 H        -3.655763         2.757807         2.530716
 H        -5.377205         1.509365         0.340941
 H        -4.217760         2.936086         0.121754
 H        -2.980204        -0.694295         0.356153
