19
Iteration:   614
 O         0.038963        -0.025958        -0.057196
 C        -0.957505         0.522333         0.749371
 C        -1.280346         2.028044         0.980143
 C        -2.383320         1.170858         1.797538
 C        -1.249196         0.310031         2.323431
 C        -3.867635         1.599298         1.995864
 C        -4.278332         1.821957         0.481814
 O        -3.387480         1.039142        -0.409637
 C        -2.497355         0.337492         0.475100
 H         0.107387        -0.961022         0.293864
 H        -0.540478         2.514015         1.647343
 H        -1.575903         2.666797         0.206684
 H        -0.508247         0.887380         2.982551
 H        -1.449383        -0.737692         2.494052
 H        -4.365657         0.706597         2.309112
 H        -4.239735         2.329798         2.695801
 H        -5.351600         1.668849         0.344504
 H        -4.069056         2.916447         0.380046
 H        -2.743401        -0.721779         0.604716
