19
Iteration:   985
 O         0.188997         0.146320        -0.028961
 C        -1.018060         0.485541         0.671806
 C        -1.193583         1.959061         1.047132
 C        -2.365924         1.134304         1.738636
 C        -1.443585         0.084658         2.403645
 C        -3.758638         1.855078         1.985410
 C        -4.314592         1.616276         0.645794
 O        -3.377802         1.140725        -0.453996
 C        -2.557559         0.312658         0.364620
 H        -0.192134        -0.671850        -0.422239
 H        -0.593257         2.381248         1.818533
 H        -1.485382         2.860756         0.363711
 H        -0.785458         0.457700         3.165952
 H        -1.684813        -0.932304         2.503825
 H        -4.288608         1.423437         2.853413
 H        -3.620327         2.933593         2.118158
 H        -5.065746         0.810718         0.613062
 H        -4.916842         2.432550         0.198864
 H        -2.991268        -0.693038         0.360477
