19
Iteration:  3330
 O         0.082996         0.094621        -0.065390
 C        -1.014192         0.606019         0.680170
 C        -1.313926         2.025737         0.963558
 C        -2.374776         1.177550         1.821163
 C        -1.254320         0.178495         2.197317
 C        -3.786192         1.658698         2.030238
 C        -4.163961         1.918698         0.477754
 O        -3.572462         0.771103        -0.224145
 C        -2.519939         0.287007         0.541226
 H         0.667312         0.752367        -0.442117
 H        -0.627829         2.657484         1.535589
 H        -1.564092         2.437255         0.006213
 H        -0.549570         0.456784         2.986802
 H        -1.697456        -0.757326         2.364796
 H        -4.433723         0.809945         2.349132
 H        -3.852375         2.569642         2.631882
 H        -5.299693         1.908005         0.209913
 H        -3.609267         2.845063         0.126768
 H        -2.561398        -0.810208         0.469693
