19
Iteration:  2211charge 0 multiplicity 1
 O        -0.072497         0.057936        -0.137167
 C        -0.977128         0.460464         0.729816
 C        -1.214691         2.024354         0.982231
 C        -2.341629         1.215478         1.707870
 C        -1.328343         0.292630         2.336234
 C        -3.732904         1.693270         1.944067
 C        -4.311171         1.640428         0.616151
 O        -3.367008         1.036443        -0.332390
 C        -2.498850         0.239839         0.497095
 H         0.513417         0.787553        -0.304518
 H        -0.549958         2.463205         1.682632
 H        -1.359286         2.693075         0.099624
 H        -0.705607         0.702650         3.145906
 H        -1.777125        -0.795659         2.431634
 H        -4.337566         1.156018         2.734256
 H        -3.591521         2.749940         2.245254
 H        -5.252979         0.963470         0.618516
 H        -4.525099         2.667864         0.344227
 H        -3.004600        -0.743741         0.882793
