19
Iteration:   390charge 0 multiplicity 1
 O         0.103000         0.139876        -0.073760
 C        -0.981139         0.488643         0.771931
 C        -1.294374         1.852976         1.092052
 C        -2.399856         1.118132         1.774508
 C        -1.214198         0.110641         2.300934
 C        -3.788040         1.903502         1.900318
 C        -4.470569         1.659481         0.446848
 O        -3.290483         1.183952        -0.358445
 C        -2.590808         0.282062         0.503078
 H         0.284981        -0.783794        -0.141593
 H        -0.451649         2.237954         1.819140
 H        -1.520839         2.513225         0.256894
 H        -0.314155         0.408891         2.958452
 H        -1.606187        -0.967669         2.501422
 H        -4.288082         1.543071         2.846783
 H        -3.550632         2.970972         1.938366
 H        -5.311227         0.970944         0.578943
 H        -4.827587         2.639851         0.122532
 H        -3.022225        -0.731539         0.690018
