19
Iteration:  1189charge 0 multiplicity 1
 O        -0.044352         0.133520        -0.185289
 C        -0.995065         0.524807         0.706729
 C        -1.295207         1.997250         1.116050
 C        -2.479584         1.124776         1.828020
 C        -1.278794         0.096259         2.339848
 C        -3.799730         1.648479         2.012522
 C        -4.260745         1.923677         0.470550
 O        -3.265583         1.036274        -0.383649
 C        -2.458773         0.253312         0.501929
 H        -0.014411        -0.858621        -0.116251
 H        -0.556915         2.483140         1.674114
 H        -1.570963         2.685200         0.265140
 H        -0.606782         0.487503         3.156982
 H        -1.645202        -0.933813         2.575326
 H        -4.494797         0.979918         2.411855
 H        -3.797600         2.538893         2.615715
 H        -5.294013         1.869264         0.090467
 H        -3.939544         2.928985         0.233280
 H        -2.782332        -0.758142         0.618645
