19
Iteration:  3328charge 0 multiplicity 1
 O         0.071621         0.094976        -0.064926
 C        -1.001706         0.604343         0.666845
 C        -1.309641         2.019444         0.970667
 C        -2.384283         1.152559         1.841233
 C        -1.252081         0.171948         2.190730
 C        -3.791810         1.679255         2.032761
 C        -4.170434         1.909828         0.474176
 O        -3.573948         0.764802        -0.218176
 C        -2.507720         0.319751         0.525101
 H         0.646756         0.796850        -0.391322
 H        -0.634944         2.687959         1.502171
 H        -1.609975         2.466112         0.031291
 H        -0.534337         0.487769         3.043238
 H        -1.665851        -0.822530         2.396905
 H        -4.432271         0.857689         2.380821
 H        -3.844722         2.619265         2.602018
 H        -5.259340         1.892675         0.211142
 H        -3.537300         2.738265         0.039277
 H        -2.566740        -0.819342         0.439132
