19
Iteration:  1035
 O        -0.017348         0.068534        -0.154342
 C        -0.984593         0.496190         0.726333
 C        -1.205099         2.025176         1.189591
 C        -2.445675         1.121663         1.843303
 C        -1.233749         0.123857         2.225669
 C        -3.786324         1.807014         2.020656
 C        -4.439724         1.707563         0.409367
 O        -3.267163         1.115945        -0.435543
 C        -2.487977         0.326281         0.560895
 H         0.143217        -0.740665         0.305624
 H        -0.335705         2.468894         1.740201
 H        -1.410150         2.651665         0.356336
 H        -0.409545         0.383301         3.001369
 H        -1.705572        -0.889436         2.493281
 H        -4.483642         1.182947         2.589285
 H        -3.706554         2.792679         2.574494
 H        -5.305639         1.025344         0.384349
 H        -4.792447         2.578443        -0.094460
 H        -2.918434        -0.730874         0.505278
