19
Iteration:   294charge 0 multiplicity 1
 O         0.001879         0.066922         0.015573
 C        -1.017760         0.549882         0.808601
 C        -1.348225         1.995804         0.988969
 C        -2.360582         1.218730         1.686151
 C        -1.332637         0.199211         2.270789
 C        -3.763792         1.666128         1.957165
 C        -4.182882         1.790142         0.571901
 O        -3.340457         0.999290        -0.359585
 C        -2.473458         0.297242         0.423473
 H        -0.155675        -0.823610        -0.287441
 H        -0.673033         2.476794         1.676282
 H        -1.668722         2.578247         0.169739
 H        -0.592232         0.692803         2.855439
 H        -1.679876        -0.784584         2.559551
 H        -4.406350         0.948627         2.451531
 H        -3.747123         2.630959         2.413617
 H        -5.169644         1.371427         0.479744
 H        -4.248700         2.870468         0.243590
 H        -2.961848        -0.665112         0.593530
