19
Iteration:  3725charge 0 multiplicity 1
 O         0.162944         0.051073        -0.088884
 C        -0.978389         0.557357         0.611090
 C        -1.217702         2.055950         1.129589
 C        -2.357483         1.168215         1.847058
 C        -1.314933         0.101146         2.203891
 C        -3.679580         1.939055         2.032836
 C        -4.478721         1.544567         0.459092
 O        -3.455634         0.962223        -0.336827
 C        -2.545101         0.314789         0.534673
 H         0.563079         0.880300        -0.342033
 H        -0.505453         2.405514         1.913565
 H        -1.660743         2.762745         0.394370
 H        -0.439665         0.273060         2.811258
 H        -1.861571        -0.975405         2.180490
 H        -4.456770         1.508488         2.656197
 H        -3.450238         3.018938         2.295979
 H        -5.459021         1.029570         0.739462
 H        -4.825673         2.408636        -0.102852
 H        -2.832444        -0.746172         0.581123
