19
Iteration:  2130charge 0 multiplicity 1
 O         0.163281         0.081518        -0.072563
 C        -0.956761         0.486894         0.719342
 C        -1.313614         2.036375         0.965760
 C        -2.415972         1.163967         1.735960
 C        -1.255781         0.271550         2.263329
 C        -3.801589         1.660987         2.051359
 C        -4.252275         1.831039         0.572459
 O        -3.452557         0.933659        -0.366051
 C        -2.617995         0.221444         0.548872
 H        -0.142282         0.232663        -0.984280
 H        -0.644303         2.590898         1.669634
 H        -1.340109         2.490747        -0.005516
 H        -0.347069         0.689687         2.889828
 H        -1.657887        -0.715428         2.698745
 H        -4.361131         0.959394         2.609013
 H        -3.748359         2.603878         2.590184
 H        -5.292903         1.711461         0.435044
 H        -3.990085         2.912289         0.363046
 H        -2.957132        -0.834654         0.603709
