19
Iteration:  3550charge 0 multiplicity 1
 O         0.123065        -0.026829        -0.019535
 C        -1.025789         0.626126         0.655269
 C        -1.412751         2.053342         0.943083
 C        -2.415172         1.143559         1.818388
 C        -1.197723         0.304969         2.182698
 C        -3.820866         1.561074         2.071765
 C        -4.128010         1.897018         0.511782
 O        -3.492003         0.887574        -0.272651
 C        -2.499291         0.281281         0.517664
 H         0.208747         0.394437        -0.880813
 H        -0.696170         2.682462         1.434408
 H        -1.868398         2.695804         0.165117
 H        -0.565796         0.804827         2.932743
 H        -1.400307        -0.763368         2.568511
 H        -4.531612         0.788966         2.415139
 H        -3.941918         2.441116         2.731620
 H        -5.218734         1.697220         0.464164
 H        -3.814372         2.855264         0.036019
 H        -2.751219        -0.829404         0.542263
