19
Iteration:  3227
 O        -0.044906        -0.219611        -0.043019
 C        -0.995851         0.540598         0.701561
 C        -1.219816         2.133092         1.024508
 C        -2.333682         1.228905         1.751494
 C        -1.111365         0.389274         2.229546
 C        -3.820276         1.561797         2.017812
 C        -4.452053         1.558361         0.621027
 O        -3.386871         1.163092        -0.387565
 C        -2.501834         0.405654         0.428369
 H         0.885405         0.088032         0.085208
 H        -0.629235         2.572986         1.811522
 H        -1.559827         2.945695         0.355446
 H        -0.248635         0.816932         2.812437
 H        -1.463664        -0.699397         2.540878
 H        -4.242220         0.816749         2.685935
 H        -4.218554         2.509345         2.404764
 H        -5.398724         0.974621         0.240294
 H        -4.565166         2.701760         0.276182
 H        -2.912955        -0.680592         0.515530
