19
Iteration:   706
 O         0.109971        -0.005192         0.012743
 C        -0.984685         0.469733         0.691400
 C        -1.236222         1.995739         1.033831
 C        -2.419410         1.254775         1.863597
 C        -1.329743        -0.000107         2.151402
 C        -3.796150         1.995440         1.921546
 C        -4.400851         1.513196         0.531405
 O        -3.343909         1.103985        -0.370514
 C        -2.509076         0.364015         0.571066
 H         0.572307         0.859787        -0.184451
 H        -0.379659         2.357864         1.628045
 H        -1.430728         2.776642         0.188369
 H        -0.562729         0.431778         2.729332
 H        -1.551709        -1.092549         2.350376
 H        -4.503852         1.554277         2.734014
 H        -3.778683         3.140841         1.979642
 H        -5.076559         0.574253         0.460087
 H        -4.954000         2.249919        -0.077588
 H        -2.953484        -0.592212         0.884554
