19
Iteration:  3461
 O         0.092719         0.012011        -0.076529
 C        -1.054335         0.625064         0.638212
 C        -1.253745         2.022286         1.112020
 C        -2.370364         1.194810         1.797085
 C        -1.348488         0.134516         2.267590
 C        -3.736575         1.943390         1.947752
 C        -4.400032         1.385205         0.682149
 O        -3.329877         1.097606        -0.383340
 C        -2.495387         0.383208         0.424189
 H        -0.113287         0.048747        -1.012307
 H        -0.504151         2.440441         1.740185
 H        -1.549736         2.670788         0.315985
 H        -0.632702         0.320096         3.058332
 H        -1.685245        -0.878102         2.464237
 H        -4.162256         1.720115         2.934576
 H        -3.634025         3.009115         1.825159
 H        -4.642861         0.402445         1.092000
 H        -5.100982         1.934952         0.145406
 H        -2.747810        -0.720034         0.501235
