19
Iteration:  4247charge 0 multiplicity 1
 O        -0.025344         0.008071        -0.172889
 C        -0.933405         0.549186         0.761578
 C        -1.166312         2.013442         1.125930
 C        -2.382942         1.213787         1.715503
 C        -1.192893         0.217766         2.340468
 C        -3.918993         1.682329         1.985863
 C        -4.371077         1.707940         0.474035
 O        -3.406591         1.033075        -0.337277
 C        -2.498503         0.290232         0.476953
 H         0.829134         0.487049        -0.062931
 H        -0.516994         2.563450         1.807309
 H        -1.510360         2.503583         0.206992
 H        -0.593708         0.642144         3.134990
 H        -1.370381        -0.852633         2.665234
 H        -4.428771         0.926849         2.550475
 H        -3.971685         2.711411         2.386791
 H        -5.293631         1.220702         0.129020
 H        -4.327425         2.749200         0.173649
 H        -2.818755        -0.751927         0.736610
