19
Iteration:  3599charge 0 multiplicity 1
 O         0.062416         0.263961        -0.097824
 C        -1.043388         0.552850         0.670681
 C        -1.285307         1.970197         1.018540
 C        -2.357369         1.100255         1.819430
 C        -1.308367         0.180386         2.259797
 C        -3.711269         1.806330         1.983285
 C        -4.223227         1.756157         0.466033
 O        -3.449442         0.856100        -0.292524
 C        -2.542053         0.209188         0.620459
 H        -0.269480         0.167075        -1.020428
 H        -0.560082         2.590498         1.645803
 H        -1.591061         2.612291         0.198703
 H        -0.508375         0.404219         2.979816
 H        -1.607322        -0.795466         2.476556
 H        -4.206121         0.984406         2.542157
 H        -3.940755         2.726461         2.518784
 H        -5.249956         1.460080         0.217597
 H        -3.897165         2.805660         0.073249
 H        -2.803424        -0.824522         0.695739
