19
Iteration:  1690
 O         0.242091         0.042496         0.058575
 C        -0.970830         0.486797         0.684023
 C        -1.203633         1.997667         1.067721
 C        -2.419136         1.174168         1.727252
 C        -1.484146         0.024865         2.157942
 C        -3.800901         1.711083         2.043738
 C        -4.390135         1.808074         0.656772
 O        -3.377059         1.189058        -0.348003
 C        -2.469758         0.305162         0.345657
 H         0.027233        -0.283605        -0.804209
 H        -0.441500         2.478832         1.732162
 H        -1.579485         2.616913         0.290090
 H        -0.624436         0.258519         2.788025
 H        -1.959372        -1.024647         2.350296
 H        -4.456659         1.044678         2.667621
 H        -3.657036         2.701543         2.404345
 H        -5.366322         1.233879         0.683748
 H        -4.613571         2.875531         0.228598
 H        -2.775330        -0.735836         0.233786
