19
Iteration:  2674
 O        -0.029210         0.014938        -0.227824
 C        -0.975435         0.543977         0.685384
 C        -1.395352         2.054603         1.007723
 C        -2.428403         1.124133         1.812391
 C        -1.139413         0.274664         2.265383
 C        -3.867213         1.656030         1.973262
 C        -4.157264         1.886961         0.510974
 O        -3.451296         0.853396        -0.247744
 C        -2.466084         0.285684         0.605058
 H         0.828632         0.466880        -0.050136
 H        -0.624630         2.470772         1.599649
 H        -1.686306         2.783486         0.251722
 H        -0.495771         0.984285         2.909670
 H        -1.288356        -0.765153         2.476361
 H        -4.454227         0.932893         2.437710
 H        -3.858272         2.549701         2.632696
 H        -5.257991         1.707373         0.290357
 H        -4.084467         2.814659        -0.058863
 H        -2.726791        -0.805690         0.929971
