19
Iteration:  1899charge 0 multiplicity 1
 O        -0.065709        -0.139310         0.030589
 C        -1.052271         0.531624         0.653654
 C        -1.262928         2.029501         1.176697
 C        -2.365209         1.251190         1.821020
 C        -1.206699         0.154899         2.100432
 C        -3.809209         1.728196         2.025170
 C        -4.339142         1.635460         0.526023
 O        -3.296484         1.188419        -0.359514
 C        -2.501953         0.375251         0.409512
 H         0.497143         0.477030        -0.469023
 H        -0.553991         2.377529         1.900955
 H        -1.461265         2.735183         0.346884
 H        -0.168095         0.442739         2.538746
 H        -1.500258        -0.930667         2.202321
 H        -4.338442         0.974140         2.616985
 H        -3.950403         2.707189         2.408516
 H        -5.162422         0.932725         0.439305
 H        -4.705310         2.660182         0.396908
 H        -2.893274        -0.677256         0.469426
