19
Iteration:  2228
 O        -0.022592         0.031242        -0.246657
 C        -1.004965         0.562748         0.700691
 C        -1.291595         1.959721         1.063088
 C        -2.408145         1.177448         1.817776
 C        -1.319739         0.185253         2.308946
 C        -3.704644         1.906039         2.094024
 C        -4.348995         1.590635         0.459970
 O        -3.278903         0.961527        -0.342297
 C        -2.514083         0.305428         0.573012
 H         0.701709         0.646017        -0.342663
 H        -0.563541         2.530709         1.727308
 H        -1.734667         2.644286         0.335062
 H        -0.462318         0.684510         2.824484
 H        -1.720633        -0.766017         2.608726
 H        -4.274162         1.350563         2.806169
 H        -3.677988         2.967942         2.389492
 H        -5.212712         0.989710         0.567839
 H        -4.789227         2.470511        -0.093121
 H        -2.813799        -0.700532         0.520876
