19
Iteration:  3971
 O         0.141205        -0.042393        -0.016267
 C        -0.950129         0.478805         0.775034
 C        -1.316910         1.982267         0.858548
 C        -2.406867         1.129901         1.743469
 C        -1.225233         0.325775         2.279352
 C        -3.828814         1.603151         2.045021
 C        -4.300646         1.770993         0.578049
 O        -3.390525         1.176231        -0.351204
 C        -2.591524         0.253626         0.469855
 H         0.111898         0.559904        -0.766982
 H        -0.838236         2.689274         1.535413
 H        -1.753572         2.557362        -0.001521
 H        -0.525758         0.929197         2.976791
 H        -1.434582        -0.736161         2.529275
 H        -4.251144         0.671384         2.498487
 H        -4.013470         2.459411         2.722514
 H        -5.152877         1.155538         0.604067
 H        -4.299619         2.760870         0.272857
 H        -2.885037        -0.767222         0.653228
