19
Iteration:  1824
 O         0.087879         0.129747        -0.035584
 C        -1.023303         0.516405         0.721859
 C        -1.296293         1.960498         1.081454
 C        -2.448273         1.055390         1.830328
 C        -1.187518         0.014216         2.105544
 C        -3.782405         1.717649         1.958391
 C        -4.278814         1.877351         0.487658
 O        -3.437305         1.136302        -0.329356
 C        -2.536038         0.296680         0.516068
 H         0.484817        -0.592176         0.498596
 H        -0.556058         2.447208         1.673089
 H        -1.643206         2.616339         0.251421
 H        -0.391364         0.255862         2.864269
 H        -1.452274        -1.010551         2.219729
 H        -4.495574         1.075263         2.524830
 H        -3.869595         2.745663         2.356400
 H        -5.393766         1.656129         0.440239
 H        -4.142590         2.982279         0.276155
 H        -2.797834        -0.728079         0.451514
