19
Iteration:  2335
 O         0.044854        -0.184934         0.003271
 C        -0.986239         0.563456         0.576122
 C        -1.282121         2.069249         0.965887
 C        -2.376671         1.184085         1.748424
 C        -1.180608         0.278412         2.223316
 C        -3.770258         1.654953         2.089079
 C        -4.483374         1.579638         0.605122
 O        -3.365571         1.139491        -0.400012
 C        -2.498431         0.430487         0.450062
 H         0.730221         0.481687         0.111886
 H        -0.734925         2.598941         1.781856
 H        -1.607508         2.690917         0.157915
 H        -0.316360         0.772279         2.728951
 H        -1.298647        -0.706471         2.581405
 H        -4.304522         1.016064         2.869898
 H        -3.761849         2.719147         2.459215
 H        -5.309652         0.849118         0.803747
 H        -4.710249         2.657528         0.408822
 H        -3.101070        -0.524907         0.673199
