19
Iteration:  2168
 O         0.144012        -0.206663         0.053837
 C        -0.960271         0.599983         0.633338
 C        -1.378959         2.136621         0.902006
 C        -2.399028         1.182153         1.722276
 C        -1.135495         0.289717         2.140053
 C        -3.852656         1.577507         2.036665
 C        -4.316114         1.789354         0.628850
 O        -3.442713         1.051277        -0.300663
 C        -2.573660         0.352295         0.516788
 H         0.783840         0.413458        -0.298803
 H        -0.769147         2.544089         1.685582
 H        -1.788895         2.840368         0.128330
 H        -0.234187         0.489453         2.636516
 H        -1.608450        -0.662323         2.400426
 H        -4.445094         0.807810         2.655919
 H        -3.942986         2.600245         2.471394
 H        -5.340370         1.281871         0.493405
 H        -4.206612         2.773080         0.240402
 H        -2.753589        -0.782744         0.713915
