19
Iteration:  3470
 O         0.032305        -0.000507         0.005054
 C        -0.960049         0.609656         0.668074
 C        -1.261025         2.045542         1.058617
 C        -2.429562         1.152690         1.736398
 C        -1.357409         0.138004         2.184802
 C        -3.699264         1.944685         1.969722
 C        -4.369998         1.391208         0.686538
 O        -3.357091         1.143498        -0.390820
 C        -2.441736         0.329353         0.476019
 H        -0.146012         0.104261        -0.930527
 H        -0.715526         2.617813         1.802054
 H        -1.742266         2.670102         0.355178
 H        -0.440748         0.601588         2.730510
 H        -1.441930        -0.949689         2.241159
 H        -4.387622         1.625371         2.746481
 H        -3.427275         2.988328         2.053666
 H        -4.782464         0.376595         1.005855
 H        -5.135206         2.007602         0.258642
 H        -2.829912        -0.701572         0.683986
