19
Iteration:  1591
 O         0.146473         0.149807        -0.059314
 C        -1.020877         0.476510         0.688575
 C        -1.120882         1.894385         1.158528
 C        -2.427265         1.115685         1.745012
 C        -1.355015         0.069032         2.189125
 C        -3.815399         1.724742         2.038382
 C        -4.309605         1.787963         0.490834
 O        -3.391533         1.218889        -0.376706
 C        -2.622909         0.310260         0.475610
 H         0.193064        -0.785469        -0.294534
 H        -0.321332         2.234169         1.866444
 H        -1.120614         2.633023         0.370704
 H        -0.590349         0.494210         2.777072
 H        -1.566189        -0.979429         2.445065
 H        -4.339395         0.945937         2.646094
 H        -3.773338         2.674249         2.574524
 H        -5.225250         1.151627         0.434715
 H        -4.553543         2.881563         0.201677
 H        -3.195469        -0.720928         0.652699
