19
Iteration:  3894
 O         0.189797         0.239768        -0.087892
 C        -1.015049         0.564886         0.594761
 C        -1.350042         1.908015         1.032266
 C        -2.447290         1.090611         1.799989
 C        -1.318358         0.233550         2.228294
 C        -3.791705         1.748575         2.031272
 C        -4.137166         1.851923         0.516917
 O        -3.458486         0.868221        -0.303479
 C        -2.583876         0.168279         0.592449
 H        -0.184900        -0.167889        -0.902724
 H        -0.570782         2.295862         1.661077
 H        -1.543674         2.714901         0.256912
 H        -0.626690         0.698947         3.042514
 H        -1.410686        -0.777871         2.546532
 H        -4.605516         1.208153         2.586847
 H        -3.745225         2.775741         2.353969
 H        -5.194330         1.722966         0.575422
 H        -3.981835         2.856317         0.034721
 H        -2.592915        -0.891339         0.692731
