19
Iteration:  1073
 O         0.097892         0.008331        -0.037415
 C        -1.002269         0.517914         0.702406
 C        -1.263825         1.999184         0.982758
 C        -2.346758         1.197973         1.772259
 C        -1.325745         0.218060         2.235810
 C        -3.842046         1.554024         2.115024
 C        -4.347768         1.874466         0.511962
 O        -3.287933         1.132949        -0.394458
 C        -2.524823         0.295141         0.461920
 H         0.223194        -0.951207         0.034894
 H        -0.573213         2.619956         1.597664
 H        -1.681642         2.565202         0.114360
 H        -0.675133         0.550114         2.987887
 H        -1.886246        -0.648383         2.501267
 H        -4.420694         0.650089         2.437969
 H        -3.919833         2.373738         2.841081
 H        -5.359201         1.465992         0.325337
 H        -4.408168         2.953488         0.143967
 H        -2.887849        -0.755090         0.671014
