19
Iteration:   938
 O         0.104591        -0.107117         0.073754
 C        -0.983381         0.568993         0.713129
 C        -1.227153         2.002645         1.058804
 C        -2.417334         1.206237         1.822555
 C        -1.176267         0.162112         2.126284
 C        -3.906482         1.704402         1.984591
 C        -4.361249         1.629714         0.475802
 O        -3.384050         1.214159        -0.382279
 C        -2.502146         0.424985         0.524238
 H        -0.041901        -0.527047        -0.745109
 H        -0.412383         2.581562         1.527014
 H        -1.620960         2.583381         0.273869
 H        -0.427728         0.446727         2.890391
 H        -1.583775        -0.779403         2.322434
 H        -4.410277         0.894087         2.559487
 H        -3.988263         2.731180         2.516469
 H        -5.268466         1.010517         0.381281
 H        -4.729232         2.565816         0.153758
 H        -2.630459        -0.643826         0.732262
