19
Iteration:   584
 O         0.053116         0.117237        -0.132949
 C        -0.964568         0.474312         0.739104
 C        -1.418014         2.004848         0.998104
 C        -2.474639         1.054799         1.751296
 C        -1.326255         0.238917         2.317444
 C        -3.762129         1.719393         2.011172
 C        -4.139302         1.990113         0.473810
 O        -3.374098         0.900769        -0.333819
 C        -2.518801         0.209445         0.489779
 H         0.648895        -0.340701         0.444765
 H        -0.830852         2.579691         1.768305
 H        -1.682991         2.639631         0.161255
 H        -0.593199         0.774178         3.005355
 H        -1.630610        -0.754416         2.631978
 H        -4.509743         0.915215         2.343550
 H        -3.678399         2.578125         2.715820
 H        -5.281134         1.853034         0.339594
 H        -3.805513         2.975069         0.126512
 H        -2.736925        -0.856988         0.689250
