19
Iteration:  1664
 O         0.138606         0.060072        -0.047256
 C        -0.993437         0.441198         0.758800
 C        -1.125781         1.975670         1.144702
 C        -2.364487         1.245277         1.769528
 C        -1.305687        -0.009181         2.214135
 C        -3.772737         1.651447         2.039822
 C        -4.402239         1.665068         0.450920
 O        -3.372147         1.297397        -0.396325
 C        -2.648680         0.411720         0.467758
 H        -0.153226        -0.569959        -0.695872
 H        -0.441476         2.299800         1.946616
 H        -1.287517         2.761550         0.351654
 H        -0.512270         0.412059         2.943950
 H        -1.680983        -1.072264         2.515274
 H        -4.295417         0.901220         2.582803
 H        -3.887484         2.710878         2.375035
 H        -5.322080         1.069286         0.457711
 H        -4.597328         2.672241         0.156908
 H        -3.199393        -0.508912         0.450221
