19
Iteration:   586charge 0 multiplicity 1
 O         0.049290         0.104567        -0.134422
 C        -0.961460         0.480289         0.724249
 C        -1.411309         2.015254         1.010416
 C        -2.458788         1.048127         1.742567
 C        -1.330564         0.259185         2.337788
 C        -3.765064         1.691679         2.014653
 C        -4.135180         1.992062         0.469904
 O        -3.367963         0.899887        -0.331002
 C        -2.531262         0.216403         0.470991
 H         0.597201        -0.381925         0.465075
 H        -0.844154         2.556669         1.796933
 H        -1.658741         2.677498         0.115496
 H        -0.635428         0.837683         2.922873
 H        -1.698257        -0.726115         2.671289
 H        -4.569697         0.940512         2.397103
 H        -3.638659         2.565547         2.711202
 H        -5.263416         1.819409         0.347417
 H        -3.853747         3.014533         0.200741
 H        -2.692358        -0.858978         0.697749
