19
Iteration:  1653
 O         0.055107         0.019988        -0.100955
 C        -1.064383         0.459853         0.694524
 C        -1.183642         1.992344         1.273336
 C        -2.359548         1.202911         1.782382
 C        -1.312645         0.085961         2.234977
 C        -3.797204         1.647727         1.978162
 C        -4.388347         1.703819         0.512238
 O        -3.296769         1.304161        -0.412720
 C        -2.494948         0.354736         0.420984
 H        -0.263545        -0.805897        -0.474764
 H        -0.404712         2.378542         1.937885
 H        -1.487385         2.727650         0.470983
 H        -0.296662         0.337688         2.702679
 H        -1.713672        -0.918886         2.649546
 H        -4.369990         1.059246         2.655666
 H        -3.930105         2.671049         2.427866
 H        -5.164665         0.929876         0.392335
 H        -4.824042         2.642159         0.227014
 H        -2.940407        -0.604911         0.600732
