19
Iteration:  2248charge 0 multiplicity 1
 O        -0.068445         0.026833        -0.228215
 C        -1.023870         0.536391         0.726902
 C        -1.339683         2.048430         1.147312
 C        -2.356192         1.160405         1.874544
 C        -1.097732         0.114502         2.232244
 C        -3.813521         1.905696         1.878180
 C        -4.325006         1.588915         0.535484
 O        -3.347071         1.045674        -0.354691
 C        -2.497894         0.253741         0.609771
 H         0.765763         0.428261         0.085825
 H        -0.467548         2.601969         1.667385
 H        -1.709685         2.597234         0.283756
 H        -0.497913         0.478665         3.055791
 H        -1.322425        -0.873320         2.287492
 H        -4.573805         1.695377         2.677570
 H        -3.597197         2.980240         1.955441
 H        -5.252823         0.908074         0.585085
 H        -4.798682         2.441658        -0.035197
 H        -2.930747        -0.762482         0.840760
