19
Iteration:  3378charge 0 multiplicity 1
 O         0.094180        -0.042363         0.049630
 C        -0.938054         0.545371         0.704620
 C        -1.398466         2.069085         0.866583
 C        -2.401271         1.105977         1.752472
 C        -1.135260         0.283134         2.235757
 C        -3.849640         1.639357         2.086237
 C        -4.340082         1.766628         0.602598
 O        -3.391871         1.146611        -0.352548
 C        -2.445528         0.193402         0.472942
 H        -0.179432        -0.051141        -0.905497
 H        -0.721452         2.670569         1.521399
 H        -1.948696         2.641722         0.044832
 H        -0.382195         0.806032         2.828502
 H        -1.366399        -0.817133         2.366213
 H        -4.406722         0.867466         2.665615
 H        -3.912499         2.611760         2.617518
 H        -5.380981         1.335949         0.516226
 H        -4.467832         2.819713         0.162671
 H        -2.840839        -0.832031         0.517040
