19
Iteration:  2789charge 0 multiplicity 1
 O         0.104619        -0.136185         0.018273
 C        -0.933806         0.543908         0.639333
 C        -1.290550         2.067327         0.934437
 C        -2.391591         1.259692         1.767794
 C        -1.251941         0.275747         2.143076
 C        -3.770658         1.673546         2.093774
 C        -4.449661         1.613511         0.639556
 O        -3.350645         1.077349        -0.385678
 C        -2.495853         0.416254         0.511521
 H         0.217283         0.084130        -0.939952
 H        -0.610626         2.805297         1.457908
 H        -1.889429         2.518507         0.063232
 H        -0.535474         0.685995         2.850414
 H        -1.627579        -0.708440         2.668185
 H        -4.321706         0.918817         2.810267
 H        -3.753680         2.604464         2.710632
 H        -5.238786         0.914800         0.578460
 H        -5.013433         2.529313         0.304168
 H        -2.751006        -0.654919         0.756158
