19
Iteration:  1994charge 0 multiplicity 1
 O         0.157445        -0.035355        -0.012344
 C        -0.915407         0.554678         0.738027
 C        -1.319680         2.015392         1.076197
 C        -2.403046         1.110830         1.721822
 C        -1.277702         0.212175         2.190225
 C        -3.758414         1.669477         1.997145
 C        -4.378968         1.809724         0.631260
 O        -3.505533         1.066057        -0.344820
 C        -2.427548         0.347075         0.410350
 H        -0.229547        -0.761413        -0.581746
 H        -0.888494         2.767679         1.781123
 H        -1.628687         2.545637         0.084488
 H        -0.455147         0.590868         2.771598
 H        -1.471238        -0.863636         2.328572
 H        -4.301436         1.180575         2.850085
 H        -3.607762         2.739130         2.209824
 H        -5.469955         1.450938         0.625708
 H        -4.356413         2.858577         0.227953
 H        -2.726529        -0.675003         0.375854
