19
Iteration:  1447
 O         0.151981         0.088463        -0.035971
 C        -0.976597         0.484232         0.702943
 C        -1.268798         1.960046         1.235062
 C        -2.414282         1.100219         1.827063
 C        -1.265936        -0.002756         2.132542
 C        -3.816257         1.748197         1.912082
 C        -4.238544         1.929010         0.509690
 O        -3.424928         1.057218        -0.376433
 C        -2.599275         0.358489         0.497125
 H        -0.090116        -0.330987        -0.921052
 H        -0.536706         2.393709         1.925905
 H        -1.577822         2.857339         0.565032
 H        -0.487568         0.370000         2.833649
 H        -1.539273        -0.974721         2.479178
 H        -4.608370         1.052985         2.429324
 H        -3.925978         2.684510         2.517109
 H        -5.248759         1.407903         0.419763
 H        -4.354204         2.968631         0.063076
 H        -2.780362        -0.730102         0.624882
