19
Iteration:  4441charge 0 multiplicity 1
 O         0.111631         0.063497        -0.015038
 C        -0.907892         0.581316         0.710396
 C        -1.342227         2.095873         0.963781
 C        -2.388122         1.149654         1.731021
 C        -1.321459         0.290441         2.269446
 C        -3.764691         1.598438         2.045305
 C        -4.207846         1.789319         0.464590
 O        -3.536695         0.875399        -0.289524
 C        -2.525089         0.229720         0.465172
 H         0.782502         0.683286        -0.387954
 H        -0.758776         2.584782         1.761681
 H        -1.504876         2.692442         0.011831
 H        -0.597243         0.565405         2.998280
 H        -1.862601        -0.736231         2.410423
 H        -4.479983         0.960272         2.574685
 H        -3.871912         2.591954         2.605805
 H        -5.289351         1.764814         0.341654
 H        -3.841488         2.830808         0.347474
 H        -2.768914        -0.830545         0.548732
