19
Iteration:  2831charge 0 multiplicity 1
 O         0.061975         0.073906        -0.196284
 C        -1.022293         0.533197         0.659813
 C        -1.199506         2.030154         1.080347
 C        -2.334521         1.238792         1.775515
 C        -1.332163         0.232636         2.270622
 C        -3.736921         1.815232         1.993440
 C        -4.456169         1.483665         0.598768
 O        -3.313576         1.043994        -0.359722
 C        -2.525071         0.404968         0.550435
 H        -0.105876        -0.907316        -0.164780
 H        -0.436510         2.221562         1.775960
 H        -1.364896         2.621623         0.202640
 H        -0.506984         0.629749         2.831943
 H        -1.587074        -0.842399         2.624116
 H        -4.241390         1.383784         2.891435
 H        -3.808061         2.879535         2.210676
 H        -5.151598         0.589548         0.779069
 H        -5.058354         2.273645         0.087776
 H        -2.906056        -0.630405         0.637724
