19
Iteration:  3273charge 0 multiplicity 1
 O        -0.017443         0.133761        -0.195598
 C        -1.009928         0.520270         0.703843
 C        -1.317612         2.001034         0.976590
 C        -2.395544         1.257446         1.825253
 C        -1.241509         0.170650         2.312985
 C        -3.810314         1.703030         1.968695
 C        -4.229033         1.717412         0.576449
 O        -3.401253         0.981161        -0.352552
 C        -2.501008         0.201273         0.603902
 H         0.880622         0.423648         0.093528
 H        -0.483588         2.558581         1.390528
 H        -1.493768         2.417180        -0.019688
 H        -0.474005         0.542016         3.097852
 H        -1.597779        -0.864975         2.525002
 H        -4.497801         1.300764         2.731265
 H        -3.648256         2.754294         2.318811
 H        -5.279690         1.270298         0.366547
 H        -4.311050         2.755384         0.063408
 H        -2.820932        -0.894310         0.722529
