19
Iteration:  2850
 O        -0.009582         0.141440        -0.205905
 C        -0.950588         0.507053         0.750694
 C        -1.234516         2.007127         1.006379
 C        -2.340722         1.247660         1.806915
 C        -1.279934         0.106060         2.263270
 C        -3.746684         1.907650         1.995714
 C        -4.401119         1.492361         0.580286
 O        -3.389076         1.070391        -0.352714
 C        -2.487571         0.299953         0.555797
 H         0.600143        -0.589722         0.096118
 H        -0.468638         2.607177         1.539463
 H        -1.714517         2.465459         0.144791
 H        -0.655542         0.322031         3.106933
 H        -1.786437        -0.841236         2.391604
 H        -4.401411         1.615503         2.751433
 H        -3.604637         2.992649         2.077105
 H        -4.969761         0.513606         0.604784
 H        -4.833917         2.382674         0.188955
 H        -2.970039        -0.704797         0.657991
