19
Iteration:    32
 O         0.075224        -0.143204         0.074739
 C        -0.957248         0.523602         0.658457
 C        -1.263828         2.045813         0.946878
 C        -2.352811         1.311460         1.738783
 C        -1.184121         0.168489         2.213940
 C        -3.902581         1.755742         1.946182
 C        -4.425712         1.606070         0.529526
 O        -3.394473         1.085311        -0.333902
 C        -2.474052         0.413453         0.542535
 H         0.621772         0.441681        -0.522074
 H        -0.468327         2.423779         1.543168
 H        -1.628983         2.773446         0.280769
 H        -0.511876         0.386667         3.035064
 H        -1.495750        -0.803025         2.381567
 H        -4.328646         1.068093         2.728599
 H        -4.028247         2.729837         2.355356
 H        -5.298461         0.952695         0.612063
 H        -4.765614         2.620539         0.112067
 H        -2.740465        -0.608583         0.840155
