19
Iteration:  4507
 O         0.026998         0.044939        -0.134496
 C        -0.962733         0.577160         0.721270
 C        -1.302868         2.117084         1.025215
 C        -2.465629         1.121703         1.766730
 C        -1.312550         0.307383         2.244959
 C        -3.834409         1.649570         2.045827
 C        -4.236668         1.770760         0.541791
 O        -3.350085         0.883044        -0.334423
 C        -2.472383         0.262187         0.500434
 H         0.738966         0.686654        -0.109959
 H        -0.662647         2.494062         1.809401
 H        -1.613635         2.603442         0.044933
 H        -0.615895         0.744424         2.929486
 H        -1.754780        -0.692060         2.628152
 H        -4.426576         0.840101         2.506907
 H        -3.833171         2.650335         2.587851
 H        -5.122308         1.186408         0.416047
 H        -4.233363         2.741617         0.039720
 H        -2.739908        -0.821846         0.627286
