19
Iteration:  1140charge 0 multiplicity 1
 O         0.093948         0.250355        -0.049384
 C        -0.918482         0.481876         0.736515
 C        -1.294800         1.986802         1.110634
 C        -2.385827         1.062483         1.764058
 C        -1.323564         0.071145         2.278707
 C        -3.791031         1.723958         1.950658
 C        -4.139058         1.966953         0.490104
 O        -3.499560         0.917022        -0.342400
 C        -2.578790         0.229489         0.482403
 H        -0.085654        -0.620362        -0.435937
 H        -0.602039         2.672434         1.770329
 H        -1.665742         2.554728         0.275147
 H        -0.548442         0.205007         2.989596
 H        -1.706512        -0.958311         2.267869
 H        -4.581477         1.246606         2.612144
 H        -3.751930         2.796553         2.163725
 H        -5.247777         1.981156         0.295388
 H        -3.783689         3.015191         0.147012
 H        -2.835295        -0.885921         0.565142
