19
Iteration:  3788
 O         0.000269        -0.064268        -0.152857
 C        -0.961440         0.482021         0.702628
 C        -1.301014         2.074306         0.946391
 C        -2.356218         1.210497         1.770952
 C        -1.249123         0.275062         2.301395
 C        -3.836691         1.636106         2.010866
 C        -4.374002         1.619062         0.571736
 O        -3.284154         1.155884        -0.321439
 C        -2.521237         0.319946         0.571108
 H         0.656207         0.644868        -0.290508
 H        -0.607425         2.515227         1.655120
 H        -1.643923         2.749489         0.124947
 H        -0.546506         0.631726         3.018897
 H        -1.646422        -0.716496         2.332770
 H        -4.393053         0.871903         2.556770
 H        -4.126198         2.591686         2.474369
 H        -5.203030         0.916084         0.361598
 H        -4.385920         2.650112         0.291091
 H        -2.840520        -0.768542         0.696328
