19
Iteration:  4249charge 0 multiplicity 1
 O        -0.025208         0.009956        -0.166310
 C        -0.940957         0.545709         0.774377
 C        -1.165271         2.019030         1.124318
 C        -2.394258         1.207484         1.704586
 C        -1.166867         0.197601         2.330462
 C        -3.909144         1.700877         1.979077
 C        -4.397278         1.715300         0.470485
 O        -3.393327         1.043753        -0.335574
 C        -2.495503         0.264229         0.471347
 H         0.860353         0.451876        -0.008975
 H        -0.574662         2.596809         1.816430
 H        -1.553981         2.546340         0.166101
 H        -0.561813         0.738714         3.182071
 H        -1.393404        -0.869216         2.601369
 H        -4.457237         0.925886         2.583450
 H        -3.974199         2.698813         2.414076
 H        -5.310684         1.169242         0.197956
 H        -4.365633         2.774387         0.194644
 H        -2.822599        -0.741060         0.755552
