19
Iteration:  4626charge 0 multiplicity 1
 O         0.168745         0.000204         0.063839
 C        -0.986322         0.571551         0.652529
 C        -1.204597         2.055828         0.996630
 C        -2.378332         1.275521         1.773511
 C        -1.343121         0.156240         2.151365
 C        -3.748972         1.737371         1.966404
 C        -4.426068         1.492090         0.536755
 O        -3.476094         1.087395        -0.326060
 C        -2.511590         0.388749         0.488071
 H         0.917764         0.634347        -0.050917
 H        -0.391541         2.468714         1.687722
 H        -1.621152         2.794899         0.184254
 H        -0.682411         0.290436         2.957989
 H        -1.784517        -0.889994         2.216769
 H        -4.159328         0.976917         2.620515
 H        -3.723393         2.824004         2.392856
 H        -5.128179         0.614380         0.713880
 H        -4.907073         2.361194         0.066555
 H        -2.893110        -0.644219         0.757167
