19
Iteration:  4761
 O         0.176504         0.241408         0.105797
 C        -1.025960         0.525167         0.674547
 C        -1.421852         1.985933         0.875247
 C        -2.387311         1.099263         1.805793
 C        -1.201150         0.162999         2.180921
 C        -3.854277         1.620049         2.002288
 C        -4.182832         1.950925         0.546576
 O        -3.494008         0.927102        -0.330360
 C        -2.507244         0.236491         0.467168
 H         0.450257        -0.666754         0.349367
 H        -0.630701         2.611650         1.430843
 H        -1.803752         2.508578         0.003791
 H        -0.326503         0.559001         2.836119
 H        -1.631128        -0.761318         2.379916
 H        -4.448371         0.708404         2.282309
 H        -3.947118         2.524158         2.579403
 H        -5.221942         1.639697         0.328472
 H        -3.984231         3.006834         0.337251
 H        -2.887268        -0.833731         0.573190
