19
Iteration:  2671charge 0 multiplicity 1
 O        -0.028960         0.008353        -0.216073
 C        -0.958488         0.562208         0.683297
 C        -1.394450         2.049477         0.966266
 C        -2.452119         1.127451         1.823446
 C        -1.169613         0.281235         2.251952
 C        -3.845072         1.660615         1.995848
 C        -4.146183         1.884040         0.525252
 O        -3.434009         0.862133        -0.240495
 C        -2.484368         0.289315         0.600675
 H         0.817075         0.488335        -0.060495
 H        -0.526933         2.425447         1.614549
 H        -1.685952         2.803160         0.159270
 H        -0.570064         0.877221         2.921625
 H        -1.320801        -0.761690         2.533988
 H        -4.477383         0.848912         2.419296
 H        -3.956991         2.516804         2.649116
 H        -5.270016         1.622256         0.344980
 H        -4.097962         2.744163        -0.104015
 H        -2.585762        -0.796662         0.799350
