19
Iteration:  1522
 O         0.126918         0.157707        -0.031241
 C        -1.019115         0.448641         0.686596
 C        -1.284607         1.875223         1.069222
 C        -2.468877         1.030043         1.784635
 C        -1.259517         0.126192         2.189697
 C        -3.887987         1.626929         2.020803
 C        -4.153412         1.974814         0.566076
 O        -3.421805         1.177365        -0.356105
 C        -2.536838         0.276546         0.449752
 H         0.118761        -0.782606        -0.156975
 H        -0.607769         2.516990         1.594380
 H        -1.667941         2.400685         0.154222
 H        -0.465880         0.674822         2.811050
 H        -1.371215        -0.938609         2.529912
 H        -4.621153         0.883596         2.114019
 H        -4.026029         2.441658         2.743419
 H        -5.269542         1.982750         0.342798
 H        -3.737479         2.945825         0.339651
 H        -2.787256        -0.821900         0.659164
