19
Iteration:   778charge 0 multiplicity 1
 O        -0.031108        -0.080117        -0.007281
 C        -1.068374         0.501791         0.716387
 C        -1.360480         2.068089         1.020843
 C        -2.380013         1.246057         1.772591
 C        -1.161828         0.223178         2.161353
 C        -3.812274         1.618350         1.998624
 C        -4.292096         1.686423         0.467509
 O        -3.246198         1.129327        -0.364265
 C        -2.553584         0.354912         0.577071
 H         0.752231        -0.154396         0.530189
 H        -0.702295         2.741899         1.609012
 H        -1.889190         2.645745         0.247671
 H        -0.390299         0.697341         2.882410
 H        -1.357514        -0.820295         2.473877
 H        -4.390525         0.930955         2.583973
 H        -3.992381         2.618794         2.385688
 H        -5.240368         1.164745         0.209773
 H        -4.411414         2.674044         0.000599
 H        -2.874814        -0.714396         0.582095
