19
Iteration:  4307
 O         0.130350         0.072671        -0.015267
 C        -0.937990         0.558275         0.741519
 C        -1.227603         1.914289         1.021148
 C        -2.385777         1.199527         1.663098
 C        -1.363057         0.214043         2.226042
 C        -3.735118         1.751751         1.957703
 C        -4.438587         1.577520         0.622060
 O        -3.422981         1.104927        -0.368490
 C        -2.499659         0.417733         0.435059
 H         0.626419        -0.612548         0.436699
 H        -0.588505         2.576656         1.701431
 H        -1.443745         2.505988         0.132394
 H        -0.540465         0.525531         3.013790
 H        -1.807144        -0.810908         2.286227
 H        -4.222332         1.084859         2.740845
 H        -3.723638         2.763789         2.392697
 H        -5.122684         0.698735         0.655095
 H        -5.111464         2.423939         0.338294
 H        -2.806612        -0.627127         0.570635
