19
Iteration:  1922charge 0 multiplicity 1
 O        -0.058571        -0.107039        -0.246205
 C        -0.921095         0.537320         0.705910
 C        -1.270746         2.073405         1.107658
 C        -2.402092         1.077711         1.810642
 C        -1.363142         0.181127         2.334492
 C        -3.753521         1.756658         2.022032
 C        -4.373674         1.635805         0.500227
 O        -3.258984         1.214255        -0.373261
 C        -2.478617         0.343683         0.519633
 H         0.867723         0.257411        -0.159965
 H        -0.664147         2.532997         1.871028
 H        -1.585131         2.701955         0.286734
 H        -0.717846         0.625642         3.187832
 H        -1.647502        -0.879664         2.316422
 H        -4.414881         1.160231         2.649453
 H        -3.573843         2.729611         2.450152
 H        -5.173523         0.894078         0.566149
 H        -4.820583         2.625360         0.377305
 H        -2.911557        -0.674640         0.484938
