19
Iteration:  4113charge 0 multiplicity 1
 O         0.117172        -0.071263        -0.013384
 C        -0.958888         0.576678         0.683524
 C        -1.202538         2.026728         1.129156
 C        -2.420156         1.191840         1.712800
 C        -1.203258         0.255695         2.209736
 C        -3.802925         1.613191         1.972820
 C        -4.413205         1.691657         0.525935
 O        -3.439406         1.033290        -0.357902
 C        -2.519615         0.453281         0.512348
 H        -0.147455         0.053555        -0.932769
 H        -0.379343         2.317410         1.860214
 H        -1.391896         2.791457         0.386929
 H        -0.625533         0.933135         2.876774
 H        -1.581067        -0.806880         2.504574
 H        -4.347680         0.847380         2.583095
 H        -3.951612         2.611016         2.526685
 H        -5.306738         0.994094         0.496557
 H        -4.378955         2.693887         0.091467
 H        -2.960817        -0.580703         0.727029
