19
Iteration:  2496
 O         0.022343        -0.053053        -0.098075
 C        -0.986449         0.599693         0.652234
 C        -1.311078         2.086717         0.952659
 C        -2.357339         1.211268         1.717830
 C        -1.271799         0.275932         2.238307
 C        -3.672227         1.678998         2.089415
 C        -4.419723         1.681344         0.630780
 O        -3.385354         1.050987        -0.329723
 C        -2.534223         0.294193         0.463341
 H         0.844140        -0.181898         0.429091
 H        -0.676076         2.784305         1.546819
 H        -1.701241         2.549492         0.055224
 H        -0.450529         0.439669         3.029053
 H        -1.744040        -0.783095         2.418014
 H        -4.089708         0.832454         2.674929
 H        -3.754846         2.635610         2.563971
 H        -5.201998         0.940137         0.516139
 H        -4.551853         2.651964         0.174983
 H        -2.713338        -0.811562         0.630235
