19
Iteration:   274
 O         0.094287         0.107346        -0.069528
 C        -1.040569         0.573703         0.723850
 C        -1.385290         2.021036         1.014712
 C        -2.472598         0.992904         1.798913
 C        -1.253746         0.199990         2.327421
 C        -3.746829         1.765663         2.069798
 C        -4.199878         1.880603         0.413433
 O        -3.339636         0.985696        -0.389331
 C        -2.549172         0.202080         0.556491
 H         0.096612        -0.834008        -0.179403
 H        -0.695493         2.633656         1.508585
 H        -1.742007         2.526460         0.145479
 H        -0.631090         0.604394         3.039594
 H        -1.528096        -0.806632         2.383760
 H        -4.474161         1.197312         2.619506
 H        -3.652161         2.819826         2.428471
 H        -5.271641         1.626236         0.235311
 H        -4.016476         2.915391        -0.018062
 H        -2.857778        -0.845375         0.461069
