19
Iteration:  1042
 O        -0.046146         0.047018        -0.139512
 C        -0.969075         0.512822         0.748229
 C        -1.205107         1.969626         1.155642
 C        -2.362401         1.123138         1.828627
 C        -1.280710         0.198079         2.223763
 C        -3.789913         1.737575         2.047131
 C        -4.391907         1.715912         0.378102
 O        -3.298575         1.133664        -0.386526
 C        -2.501383         0.353605         0.485774
 H         0.214078        -0.839272         0.234306
 H        -0.555261         2.464952         1.942766
 H        -1.605374         2.587897         0.348575
 H        -0.666957         0.593020         3.009966
 H        -1.640156        -0.831881         2.494559
 H        -4.433625         1.117100         2.673887
 H        -3.714751         2.668342         2.554258
 H        -5.198501         0.960061         0.391363
 H        -4.585502         2.707233        -0.137046
 H        -2.767497        -0.680811         0.623131
