19
Iteration:  3859charge 0 multiplicity 1
 O         0.111501         0.165215        -0.061219
 C        -0.966863         0.597679         0.693297
 C        -1.332595         1.953219         0.863577
 C        -2.405151         1.117280         1.833737
 C        -1.175946         0.158577         2.269404
 C        -3.814517         1.633795         2.002131
 C        -4.243302         1.866168         0.556420
 O        -3.503217         0.997356        -0.333835
 C        -2.537661         0.247668         0.523406
 H         0.566667        -0.635455         0.278700
 H        -0.672477         2.592089         1.477580
 H        -1.859993         2.457103         0.050577
 H        -0.539359         0.689891         3.025537
 H        -1.515851        -0.876345         2.437419
 H        -4.430158         0.961392         2.631221
 H        -3.887529         2.631568         2.441710
 H        -5.285185         1.583109         0.536967
 H        -4.035428         2.856914         0.203626
 H        -2.839740        -0.792718         0.466287
