19
Iteration:  1986
 O         0.095310         0.010660        -0.039871
 C        -0.902776         0.540094         0.729408
 C        -1.278744         2.079830         1.087547
 C        -2.422968         1.098529         1.794286
 C        -1.230654         0.099124         2.160510
 C        -3.767159         1.774658         1.997581
 C        -4.404601         1.775193         0.609339
 O        -3.491482         1.038668        -0.338512
 C        -2.435231         0.377217         0.399461
 H        -0.070679        -0.955669        -0.252971
 H        -0.577526         2.695670         1.654023
 H        -1.767639         2.541458         0.198556
 H        -0.398234         0.602518         2.873608
 H        -1.464283        -0.990247         2.413204
 H        -4.545753         1.325243         2.627575
 H        -3.632886         2.760869         2.350550
 H        -5.282818         1.245463         0.342788
 H        -4.477809         2.797224         0.210561
 H        -2.614675        -0.786250         0.436215
