19
Iteration:  4120
 O         0.143851        -0.022278        -0.010954
 C        -0.904810         0.538102         0.682020
 C        -1.174627         2.039860         1.133916
 C        -2.438235         1.261909         1.698460
 C        -1.300666         0.228221         2.166888
 C        -3.782618         1.598980         1.959592
 C        -4.368781         1.690545         0.540369
 O        -3.480763         1.009434        -0.306416
 C        -2.520430         0.398925         0.508342
 H         0.126258        -0.130535        -0.956796
 H        -0.494493         2.561444         1.766849
 H        -1.405720         2.746799         0.263518
 H        -0.556567         0.660412         2.908383
 H        -1.665040        -0.723137         2.390760
 H        -4.375802         0.886736         2.547130
 H        -4.015564         2.509812         2.422448
 H        -5.409655         1.376870         0.474804
 H        -4.501667         2.749131         0.226404
 H        -2.902338        -0.556123         0.897257
