19
Iteration:  1808
 O         0.065511         0.060914        -0.192769
 C        -0.937372         0.518971         0.676277
 C        -1.393113         1.986248         1.187050
 C        -2.415735         1.135350         1.815792
 C        -1.161182         0.020016         2.186514
 C        -3.968964         1.770794         2.052831
 C        -4.244642         2.018219         0.491060
 O        -3.334062         1.016153        -0.356402
 C        -2.540084         0.245298         0.511771
 H         0.834653        -0.320667         0.347340
 H        -0.722082         2.482842         1.977002
 H        -1.785344         2.703142         0.478182
 H        -0.382190         0.295610         2.915899
 H        -1.554214        -1.110496         2.195141
 H        -4.611889         0.974271         2.392361
 H        -3.812517         2.596346         2.735810
 H        -5.185974         1.645358         0.168906
 H        -4.090354         2.960559        -0.032160
 H        -2.939020        -0.838211         0.680675
