19
Iteration:   296charge 0 multiplicity 1
 O         0.026364         0.055090         0.009234
 C        -1.025609         0.529880         0.800959
 C        -1.327588         2.016422         1.006529
 C        -2.364407         1.217792         1.676749
 C        -1.321780         0.210109         2.284036
 C        -3.779249         1.658001         1.961827
 C        -4.198373         1.787217         0.579996
 O        -3.346937         1.007955        -0.364512
 C        -2.482051         0.301170         0.433778
 H        -0.158968        -0.875749        -0.337610
 H        -0.624922         2.506033         1.599318
 H        -1.576984         2.627628         0.151867
 H        -0.589244         0.631610         2.863251
 H        -1.704017        -0.731887         2.514258
 H        -4.368657         0.912859         2.447757
 H        -3.875642         2.692007         2.400584
 H        -5.214688         1.344175         0.456684
 H        -4.259466         2.856476         0.210915
 H        -2.981425        -0.657986         0.588573
