19
Iteration:  2320charge 0 multiplicity 1
 O         0.018452        -0.111956         0.047335
 C        -1.000033         0.576601         0.696282
 C        -1.143821         2.049854         0.900750
 C        -2.356514         1.213014         1.730439
 C        -1.200813         0.296901         2.147091
 C        -3.804016         1.669292         2.047316
 C        -4.414644         1.560969         0.657992
 O        -3.448744         1.191778        -0.345334
 C        -2.562679         0.347696         0.438615
 H         0.953146         0.149538         0.242194
 H        -0.296633         2.496950         1.373025
 H        -1.486584         2.717573         0.102764
 H        -0.443701         0.699209         2.894750
 H        -1.389811        -0.880570         2.371535
 H        -4.265901         0.859781         2.666604
 H        -3.977141         2.601899         2.557153
 H        -5.168321         0.816502         0.552376
 H        -4.988696         2.353020         0.267900
 H        -2.745808        -0.700395         0.452202
