19
Iteration:  1482charge 0 multiplicity 1
 O        -0.060179         0.172577        -0.205400
 C        -1.005139         0.506667         0.713720
 C        -1.241835         1.988127         1.135910
 C        -2.455559         1.075802         1.847768
 C        -1.415686         0.105206         2.272690
 C        -3.848770         1.610224         2.004407
 C        -4.015286         1.921877         0.511483
 O        -3.314495         1.033895        -0.353745
 C        -2.470608         0.318543         0.486147
 H         0.078677        -0.818526        -0.277301
 H        -0.585072         2.413090         1.915292
 H        -1.636883         2.695209         0.364676
 H        -0.733010         0.520194         2.944731
 H        -1.874069        -0.804517         2.597398
 H        -4.578800         0.743847         2.337696
 H        -3.991377         2.550654         2.563826
 H        -5.091825         1.733660         0.394171
 H        -3.834640         3.010619         0.233382
 H        -2.798458        -0.702294         0.337922
