19
Iteration:  4897
 O         0.074450         0.001539         0.028631
 C        -0.955861         0.513225         0.719730
 C        -1.320063         2.045079         1.027460
 C        -2.386641         1.194601         1.731298
 C        -1.246498         0.210501         2.195287
 C        -3.829041         1.656308         2.036123
 C        -4.411642         1.619771         0.497998
 O        -3.288328         1.114512        -0.330308
 C        -2.516146         0.348452         0.492558
 H         0.372933         0.616553        -0.651199
 H        -0.684102         2.590033         1.662652
 H        -1.593597         2.463341         0.037552
 H        -0.459270         0.578617         2.780843
 H        -1.718102        -0.800238         2.316446
 H        -4.364496         1.013932         2.744515
 H        -3.846402         2.681539         2.491528
 H        -5.272973         0.947636         0.392022
 H        -4.645875         2.670659         0.178282
 H        -2.847702        -0.717564         0.609494
