19
Iteration:  2824charge 0 multiplicity 1
 O         0.033893         0.050963        -0.145193
 C        -1.001773         0.545125         0.663777
 C        -1.167414         1.997982         1.085676
 C        -2.362091         1.258537         1.767737
 C        -1.304035         0.256672         2.226447
 C        -3.737431         1.791924         1.964078
 C        -4.447973         1.486978         0.594536
 O        -3.379111         1.079679        -0.313954
 C        -2.488202         0.347221         0.525147
 H        -0.154136        -0.886717        -0.407969
 H        -0.340798         2.444130         1.781976
 H        -1.377879         2.804485         0.292870
 H        -0.521035         0.807484         2.831193
 H        -1.703200        -0.679380         2.647883
 H        -4.360300         1.123030         2.661719
 H        -3.659538         2.867536         2.263274
 H        -4.926504         0.550732         0.682489
 H        -4.974046         2.354890         0.135076
 H        -2.827843        -0.723217         0.660556
