19
Iteration:  1832charge 0 multiplicity 1
 O         0.107916         0.145227        -0.005150
 C        -1.024291         0.541525         0.676942
 C        -1.223185         1.946956         1.061944
 C        -2.427026         1.030539         1.774372
 C        -1.289789         0.038905         2.172792
 C        -3.747657         1.666996         1.998327
 C        -4.262243         1.842565         0.552910
 O        -3.428447         1.118855        -0.338746
 C        -2.610609         0.391586         0.429416
 H         0.356743        -0.672540         0.440869
 H        -0.575633         2.538399         1.703119
 H        -1.647136         2.492229         0.179516
 H        -0.514564         0.570186         2.831041
 H        -1.525577        -1.094701         2.370868
 H        -4.462584         1.074207         2.586707
 H        -3.536325         2.615624         2.418665
 H        -5.296508         1.505022         0.423368
 H        -4.183215         2.864396         0.110511
 H        -2.948152        -0.662518         0.569819
