19
Iteration:  4402
 O         0.077140         0.049540        -0.081241
 C        -1.014305         0.527097         0.734560
 C        -1.280945         2.035348         1.038101
 C        -2.397526         1.161207         1.791982
 C        -1.122912         0.229489         2.255317
 C        -3.886651         1.688001         1.990224
 C        -4.277229         1.708425         0.398046
 O        -3.383951         1.014892        -0.283748
 C        -2.583423         0.241181         0.575500
 H         0.110585         0.740119        -0.752370
 H        -0.680676         2.485566         1.802054
 H        -1.467857         2.858957         0.308537
 H        -0.278102         0.625778         2.885767
 H        -1.432102        -0.753933         2.537480
 H        -4.581335         1.117005         2.652676
 H        -3.819352         2.690380         2.357975
 H        -5.350747         1.281407         0.266039
 H        -4.354707         2.581960        -0.259491
 H        -2.956328        -0.796887         0.776128
