19
Iteration:  3885charge 0 multiplicity 1
 O         0.130708         0.304799        -0.053981
 C        -1.006424         0.475152         0.679077
 C        -1.391031         1.903655         0.966255
 C        -2.442007         1.109242         1.746639
 C        -1.293858         0.197853         2.210435
 C        -3.708318         1.735826         2.045378
 C        -4.166618         1.903838         0.556832
 O        -3.409069         0.844926        -0.323054
 C        -2.578935         0.208351         0.550938
 H         0.124893        -0.382958        -0.746359
 H        -0.827038         2.426919         1.735798
 H        -1.842024         2.524152         0.148546
 H        -0.662019         0.822683         2.912087
 H        -1.595134        -0.781851         2.574833
 H        -4.353013         1.076190         2.671784
 H        -3.597330         2.699264         2.570431
 H        -5.280345         1.714620         0.438636
 H        -4.051879         2.937993         0.005920
 H        -2.889943        -0.883336         0.790089
