19
Iteration:  1152charge 0 multiplicity 1
 O         0.087732         0.267927        -0.118008
 C        -1.080359         0.516051         0.769550
 C        -1.299080         1.915158         1.100804
 C        -2.389121         1.104251         1.849537
 C        -1.254179         0.003574         2.266319
 C        -3.819732         1.804827         1.960862
 C        -4.237233         2.024899         0.395077
 O        -3.415177         0.883939        -0.354311
 C        -2.524578         0.241141         0.549161
 H         0.131349        -0.618486        -0.474465
 H        -0.462122         2.268821         1.839316
 H        -1.582943         2.611746         0.335813
 H        -0.503032         0.350047         2.979839
 H        -1.533420        -1.055716         2.371940
 H        -4.452614         1.031529         2.463392
 H        -3.658353         2.577587         2.702753
 H        -5.297935         1.858160         0.054123
 H        -3.771164         3.023034         0.030192
 H        -2.860823        -0.832452         0.693671
