19
Iteration:  4508
 O         0.023991         0.043483        -0.140892
 C        -0.962045         0.583933         0.724505
 C        -1.297767         2.107440         1.036392
 C        -2.461426         1.129885         1.768293
 C        -1.313451         0.312293         2.248345
 C        -3.836437         1.652384         2.046211
 C        -4.233541         1.763800         0.530380
 O        -3.356687         0.886583        -0.339447
 C        -2.471844         0.258318         0.504355
 H         0.739812         0.671886        -0.117081
 H        -0.687203         2.476867         1.816912
 H        -1.598808         2.603529         0.046462
 H        -0.583931         0.751342         2.943034
 H        -1.764908        -0.680168         2.635578
 H        -4.405676         0.840363         2.544425
 H        -3.843040         2.627055         2.592150
 H        -5.143105         1.168306         0.440596
 H        -4.236329         2.745835         0.038982
 H        -2.715440        -0.831224         0.574002
