19
Iteration:   658charge 0 multiplicity 1
 O         0.143796        -0.002024         0.059841
 C        -0.969549         0.486013         0.677414
 C        -1.232307         1.980590         1.023017
 C        -2.432812         1.208182         1.789729
 C        -1.317352         0.236909         2.275694
 C        -3.794224         1.742900         2.053669
 C        -4.366683         1.698010         0.537196
 O        -3.362284         1.080055        -0.439652
 C        -2.523961         0.327206         0.426991
 H        -0.177998        -0.221565        -0.848354
 H        -0.517870         2.576074         1.626055
 H        -1.547593         2.543414         0.183696
 H        -0.538938         0.647437         2.997673
 H        -1.741041        -0.719044         2.541944
 H        -4.368600         1.134268         2.724883
 H        -3.713675         2.749799         2.439373
 H        -5.174195         0.986916         0.583770
 H        -4.725783         2.578631         0.008683
 H        -2.826336        -0.722672         0.552582
