19
Iteration:  1019
 O         0.047689         0.109864        -0.132837
 C        -1.025672         0.513681         0.749343
 C        -1.223648         1.961828         1.153973
 C        -2.401493         1.231831         1.810410
 C        -1.226324        -0.015495         2.227681
 C        -3.872225         1.878242         1.897706
 C        -4.324017         1.630076         0.504486
 O        -3.300102         1.113571        -0.362605
 C        -2.578397         0.355156         0.515118
 H         0.356308        -0.772897        -0.011602
 H        -0.580333         2.287050         1.992585
 H        -1.580856         2.754341         0.423261
 H        -0.480896         0.302168         2.926308
 H        -1.466218        -1.082368         2.281929
 H        -4.474748         1.485965         2.726888
 H        -3.811052         2.938047         2.043859
 H        -5.082576         0.824439         0.540628
 H        -4.609285         2.628916         0.050982
 H        -2.886453        -0.637028         0.777158
