19
Iteration:  4067charge 0 multiplicity 1
 O         0.068905         0.006217        -0.081618
 C        -0.959615         0.489894         0.672819
 C        -1.270823         2.037986         0.997974
 C        -2.429466         1.170891         1.801449
 C        -1.334255         0.223852         2.247545
 C        -3.728024         1.766558         2.034639
 C        -4.393512         1.587674         0.503569
 O        -3.244276         1.145059        -0.353890
 C        -2.564377         0.282424         0.585503
 H         0.261256         0.367812        -0.941291
 H        -0.614873         2.469206         1.726815
 H        -1.721517         2.862972         0.358631
 H        -0.616924         0.679409         3.017346
 H        -1.562081        -0.820274         2.220315
 H        -4.432082         1.151858         2.653956
 H        -3.788774         2.753579         2.470800
 H        -4.986341         0.626412         0.605064
 H        -4.951354         2.459962         0.116652
 H        -3.089172        -0.724068         0.753683
