19
Iteration:   256
 O         0.184252         0.188488        -0.140121
 C        -0.951348         0.390755         0.718986
 C        -1.373559         1.869265         1.092998
 C        -2.458556         1.136994         1.820825
 C        -1.196828         0.163534         2.231952
 C        -3.931266         1.825250         1.888118
 C        -4.186150         1.927811         0.466075
 O        -3.425207         0.961324        -0.313796
 C        -2.585122         0.224104         0.586571
 H         0.251053        -0.754676        -0.011085
 H        -0.739128         2.523677         1.813240
 H        -1.645909         2.641933         0.276772
 H        -0.420417         0.714996         2.888288
 H        -1.314039        -0.862509         2.736773
 H        -4.666688         1.243586         2.495345
 H        -3.864840         2.808182         2.455911
 H        -5.254962         1.752740         0.199785
 H        -3.893560         2.866043         0.050371
 H        -2.879471        -0.826897         0.821261
