19
Iteration:  4622
 O         0.195010        -0.019328         0.055411
 C        -0.985579         0.571154         0.642247
 C        -1.194719         2.096702         0.986690
 C        -2.362570         1.236582         1.798737
 C        -1.379682         0.172660         2.145116
 C        -3.750604         1.720892         1.944937
 C        -4.469365         1.502764         0.556933
 O        -3.462560         1.091272        -0.343245
 C        -2.513945         0.383762         0.512975
 H         0.870826         0.660095         0.059157
 H        -0.511884         2.473055         1.746711
 H        -1.493483         2.711957         0.194445
 H        -0.481967         0.366575         2.875356
 H        -1.814474        -0.841640         2.211509
 H        -4.177377         0.945712         2.642136
 H        -3.664085         2.764587         2.225675
 H        -5.196666         0.662092         0.695505
 H        -4.987456         2.457126         0.215424
 H        -2.863409        -0.605752         0.820851
