19
Iteration:   567charge 0 multiplicity 1
 O         0.063904         0.181015        -0.068268
 C        -0.976149         0.532243         0.754802
 C        -1.362123         1.915109         1.013969
 C        -2.385445         1.168520         1.843414
 C        -1.200781         0.063659         2.235902
 C        -3.868838         1.757516         1.928908
 C        -4.100120         1.919443         0.407177
 O        -3.479878         0.934826        -0.327548
 C        -2.598606         0.209185         0.607706
 H         0.873809         0.058374         0.384835
 H        -0.586442         2.518743         1.445807
 H        -1.797805         2.283464         0.024216
 H        -0.525179         0.464203         2.956547
 H        -1.534416        -1.011288         2.194367
 H        -4.601419         1.235322         2.510710
 H        -3.932737         2.796079         2.298270
 H        -5.141690         1.845153         0.201899
 H        -3.806754         3.002738         0.242386
 H        -2.870378        -0.879668         0.707998
