19
Iteration:  4976charge 0 multiplicity 1
 O         0.172590         0.101382         0.074089
 C        -0.994653         0.500048         0.745129
 C        -1.424761         2.034753         0.955308
 C        -2.383964         1.153421         1.780903
 C        -1.284589         0.101805         2.153526
 C        -3.772839         1.668259         2.099001
 C        -4.323701         1.734968         0.456969
 O        -3.407046         1.048013        -0.365131
 C        -2.451403         0.320854         0.535770
 H         0.095921         0.470305        -0.816279
 H        -0.796531         2.811493         1.324083
 H        -1.800776         2.591303         0.139229
 H        -0.495663         0.473925         2.852825
 H        -1.431327        -1.034467         2.318599
 H        -4.353465         0.980685         2.692965
 H        -3.736912         2.694258         2.479637
 H        -5.399686         1.340040         0.415212
 H        -4.362147         2.774330         0.108576
 H        -2.809630        -0.706910         0.566886
