19
Iteration:  2966
 O         0.048173         0.074983        -0.137238
 C        -0.976188         0.623300         0.693339
 C        -1.374377         2.044181         0.979759
 C        -2.430992         1.038106         1.784570
 C        -1.207270         0.272183         2.254556
 C        -3.809987         1.671826         1.981013
 C        -4.191227         1.853791         0.522264
 O        -3.430065         0.975949        -0.238743
 C        -2.515858         0.234489         0.527423
 H        -0.139274        -0.907159        -0.152762
 H        -0.772512         2.589254         1.731350
 H        -1.655966         2.606152         0.098801
 H        -0.242008         0.626180         2.815385
 H        -1.325487        -0.778069         2.382132
 H        -4.618602         1.009558         2.450351
 H        -3.758077         2.608008         2.602887
 H        -5.146242         1.455931         0.343506
 H        -4.013197         2.902170         0.247317
 H        -2.627756        -0.820542         0.716573
