19
Iteration:   112
 O         0.027526         0.041301        -0.085577
 C        -1.018429         0.527809         0.723148
 C        -1.159974         1.958581         1.159084
 C        -2.388697         1.279923         1.785400
 C        -1.217912         0.166712         2.210601
 C        -3.792317         1.876623         1.901068
 C        -4.393091         1.587240         0.503384
 O        -3.386925         1.023837        -0.406723
 C        -2.565439         0.329475         0.527000
 H         0.615121        -0.533271         0.488391
 H        -0.442637         2.385503         1.882740
 H        -1.358264         2.780546         0.434687
 H        -0.459438         0.625732         2.826383
 H        -1.545591        -0.866168         2.391075
 H        -4.339961         1.301384         2.592285
 H        -3.818991         2.977255         2.141212
 H        -5.161258         0.816604         0.717713
 H        -4.885025         2.428333         0.114876
 H        -2.903124        -0.712763         0.697020
