19
Iteration:  3534
 O         0.027926         0.012284         0.036417
 C        -0.981872         0.551033         0.727050
 C        -1.293656         2.094875         0.888271
 C        -2.295284         1.252783         1.692195
 C        -1.244539         0.278837         2.258229
 C        -3.756709         1.510107         1.992101
 C        -4.307608         1.832918         0.611346
 O        -3.495502         0.935818        -0.358223
 C        -2.527430         0.274030         0.525042
 H         0.286003         0.505611        -0.763438
 H        -0.586944         2.741613         1.497526
 H        -1.677143         2.544857        -0.022271
 H        -0.318167         0.579622         2.903825
 H        -1.482218        -0.767018         2.502494
 H        -4.120815         0.544566         2.351276
 H        -4.032534         2.292556         2.703046
 H        -5.353587         1.642239         0.390281
 H        -3.920796         2.843968         0.564572
 H        -2.910170        -0.680013         0.828472
