19
Iteration:  1218charge 0 multiplicity 1
 O         0.102444        -0.012778        -0.015834
 C        -1.002566         0.477718         0.709219
 C        -1.325583         2.038586         1.053929
 C        -2.388257         1.189337         1.750272
 C        -1.296799         0.198239         2.226788
 C        -3.804384         1.560529         1.994026
 C        -4.301175         1.814223         0.577903
 O        -3.321533         1.181064        -0.378930
 C        -2.523207         0.317036         0.435732
 H        -0.220229        -0.890161        -0.373653
 H        -0.522871         2.536207         1.738293
 H        -1.487346         2.761129         0.204729
 H        -0.555728         0.448301         3.021411
 H        -1.653136        -0.808594         2.407438
 H        -4.396024         0.697632         2.476332
 H        -3.894876         2.510353         2.554209
 H        -5.399393         1.636766         0.382718
 H        -4.104906         2.955911         0.453311
 H        -3.027402        -0.724340         0.609964
