19
Iteration:  2060
 O         0.022848        -0.002497        -0.222431
 C        -0.979286         0.600961         0.666074
 C        -1.320606         2.012864         1.045059
 C        -2.433535         1.093666         1.820128
 C        -1.254663         0.249100         2.273308
 C        -3.794043         1.668042         2.017676
 C        -4.208055         1.915576         0.544984
 O        -3.414365         0.922612        -0.343993
 C        -2.528232         0.268363         0.554958
 H         0.789699         0.012338         0.361552
 H        -0.735527         2.720534         1.716283
 H        -1.678853         2.630499         0.095457
 H        -0.567258         0.773144         2.929642
 H        -1.463546        -0.767692         2.573518
 H        -4.571916         0.871717         2.318941
 H        -3.777303         2.558340         2.665706
 H        -5.298176         1.550229         0.574945
 H        -4.047069         2.938219         0.120986
 H        -2.647206        -0.761773         0.765339
