19
Iteration:  3383charge 0 multiplicity 1
 O         0.094264        -0.053468         0.045225
 C        -0.968351         0.539276         0.719319
 C        -1.420324         2.105429         0.880853
 C        -2.366501         1.095383         1.718107
 C        -1.142139         0.258198         2.193383
 C        -3.818584         1.670665         2.066637
 C        -4.361383         1.710273         0.614856
 O        -3.351595         1.142033        -0.338269
 C        -2.460004         0.252945         0.484905
 H        -0.198949        -0.187319        -0.860206
 H        -0.796607         2.690117         1.545599
 H        -1.947947         2.635017         0.143489
 H        -0.514564         0.799245         2.977440
 H        -1.371018        -0.792030         2.315483
 H        -4.491960         0.966092         2.561844
 H        -3.879409         2.606459         2.626356
 H        -5.379880         1.344103         0.573415
 H        -4.520050         2.697738         0.212911
 H        -2.801937        -0.805675         0.595613
