19
Iteration:  4373charge 0 multiplicity 1
 O         0.031177         0.041311        -0.030409
 C        -0.974376         0.583321         0.735214
 C        -1.355592         2.035322         0.970259
 C        -2.351250         1.172373         1.803371
 C        -1.285357         0.221638         2.387457
 C        -3.720896         1.676097         2.010715
 C        -4.409772         1.618128         0.571474
 O        -3.254637         1.092477        -0.468326
 C        -2.484679         0.284400         0.454010
 H        -0.405276        -0.017712        -0.934086
 H        -0.758427         2.702046         1.706837
 H        -1.788199         2.562532         0.181650
 H        -0.495984         0.491574         3.131993
 H        -1.823408        -0.720270         2.439605
 H        -4.311331         1.262674         2.850272
 H        -3.692070         2.732962         2.371324
 H        -5.211711         0.910971         0.603910
 H        -4.560047         2.523663        -0.034647
 H        -2.861619        -0.725321         0.608194
