19
Iteration:  2647
 O        -0.029664         0.014272        -0.078630
 C        -1.006248         0.502975         0.718927
 C        -1.349691         2.069431         0.873621
 C        -2.330557         1.257601         1.731938
 C        -1.246501         0.269128         2.298036
 C        -3.764966         1.558284         2.057225
 C        -4.266364         1.751910         0.619553
 O        -3.419223         0.986784        -0.361291
 C        -2.498255         0.258361         0.497914
 H         0.715009         0.663680        -0.026046
 H        -0.555409         2.763661         1.388486
 H        -1.774220         2.517572        -0.056883
 H        -0.500076         0.618295         2.938361
 H        -1.618287        -0.775982         2.517209
 H        -4.084913         0.843077         2.880549
 H        -3.752932         2.528265         2.554505
 H        -5.294541         1.652909         0.218712
 H        -4.073488         2.779422         0.257567
 H        -2.812998        -0.671394         0.931101
