19
Iteration:  4666charge 0 multiplicity 1
 O         0.105973         0.029716        -0.081728
 C        -0.951646         0.557512         0.657640
 C        -1.331975         2.003635         1.098135
 C        -2.375669         1.066818         1.772866
 C        -1.274530         0.273160         2.364019
 C        -3.768019         1.736775         1.959470
 C        -4.367091         1.542668         0.459654
 O        -3.334115         1.158812        -0.307268
 C        -2.535767         0.297245         0.495550
 H        -0.003921         0.390457        -0.965784
 H        -0.530568         2.341005         1.739833
 H        -1.743508         2.646531         0.377941
 H        -0.670183         0.931674         3.036853
 H        -1.498894        -0.802762         2.577323
 H        -4.515164         1.269711         2.683414
 H        -3.687930         2.815668         2.027281
 H        -5.208517         0.837154         0.591475
 H        -4.822171         2.514753         0.110156
 H        -2.881516        -0.737893         0.496102
