19
Iteration:  1420charge 0 multiplicity 1
 O         0.124085         0.029803         0.079017
 C        -0.924806         0.496075         0.707088
 C        -1.254741         1.977284         1.013909
 C        -2.423675         1.066635         1.678720
 C        -1.426444         0.078052         2.169375
 C        -3.746425         1.676506         2.088009
 C        -4.321497         1.847715         0.620980
 O        -3.355563         1.160351        -0.414030
 C        -2.552922         0.310574         0.404908
 H         0.348949         0.552425        -0.758676
 H        -0.595517         2.506272         1.751205
 H        -1.648165         2.636514         0.278631
 H        -0.820533         0.381251         3.046268
 H        -1.845541        -0.966248         2.406836
 H        -4.307684         1.198772         2.816452
 H        -3.657147         2.665595         2.501589
 H        -5.318873         1.426918         0.386147
 H        -4.352952         2.889959         0.357598
 H        -2.766043        -0.813404         0.513390
