19
Iteration:  3442
 O         0.096559         0.100375        -0.142991
 C        -0.917022         0.455241         0.732801
 C        -1.089018         1.996539         1.134090
 C        -2.326060         1.298440         1.762858
 C        -1.398326         0.180615         2.253904
 C        -3.726298         1.873337         1.904084
 C        -4.506042         1.318725         0.570718
 O        -3.457103         1.161072        -0.333336
 C        -2.462647         0.326986         0.531176
 H        -0.347453         0.060699        -1.001812
 H        -0.390183         2.386656         1.895701
 H        -1.380166         2.808475         0.402007
 H        -0.631929         0.412884         2.910690
 H        -1.784106        -0.840088         2.489519
 H        -4.409184         1.609781         2.743657
 H        -3.604526         2.973462         1.833568
 H        -5.062461         0.373791         0.794242
 H        -5.045906         2.208355         0.210822
 H        -2.941179        -0.612375         0.801781
