19
Iteration:  1919
 O        -0.051219        -0.133575        -0.229469
 C        -0.940642         0.534793         0.702488
 C        -1.284194         2.095825         1.130320
 C        -2.402370         1.090451         1.790143
 C        -1.342222         0.176186         2.296908
 C        -3.762217         1.742533         2.016710
 C        -4.357532         1.628028         0.518600
 O        -3.255802         1.213429        -0.360667
 C        -2.469908         0.365768         0.510613
 H         0.795102         0.307629        -0.207195
 H        -0.629695         2.499226         1.898146
 H        -1.698651         2.769306         0.315163
 H        -0.726480         0.662478         3.139503
 H        -1.707613        -0.916135         2.386075
 H        -4.412550         1.170043         2.711079
 H        -3.600514         2.720898         2.410323
 H        -5.173804         0.934734         0.597416
 H        -4.769435         2.630468         0.235016
 H        -2.930177        -0.703518         0.493763
