19
Iteration:   775charge 0 multiplicity 1
 O        -0.035926        -0.100644        -0.018731
 C        -1.049028         0.500763         0.725207
 C        -1.375837         2.093505         1.005390
 C        -2.392518         1.236451         1.778835
 C        -1.190752         0.225853         2.178830
 C        -3.806106         1.626047         2.016696
 C        -4.311419         1.694689         0.468915
 O        -3.235740         1.136355        -0.379085
 C        -2.497415         0.336522         0.559703
 H         0.837599        -0.182158         0.503640
 H        -0.734063         2.708903         1.727203
 H        -1.874150         2.637816         0.263642
 H        -0.489314         0.760260         2.837609
 H        -1.387045        -0.766825         2.464946
 H        -4.355359         0.871463         2.575882
 H        -3.913889         2.676706         2.379730
 H        -5.312098         1.105669         0.371089
 H        -4.537469         2.698261         0.023334
 H        -2.886700        -0.690485         0.546468
