19
Iteration:   768charge 0 multiplicity 1
 O        -0.038804        -0.149366        -0.055253
 C        -0.947956         0.535989         0.731898
 C        -1.396906         2.123851         1.010059
 C        -2.415505         1.179010         1.786209
 C        -1.275901         0.268076         2.248165
 C        -3.802709         1.671889         2.032953
 C        -4.362288         1.693388         0.478215
 O        -3.238150         1.146110        -0.403342
 C        -2.414968         0.301218         0.476656
 H         0.835883        -0.160322         0.411805
 H        -0.765039         2.560763         1.777731
 H        -1.747021         2.736399         0.143843
 H        -0.522274         0.838059         2.906485
 H        -1.523673        -0.790299         2.528000
 H        -4.321487         0.891899         2.580265
 H        -3.805957         2.639972         2.523512
 H        -5.183457         1.027638         0.640604
 H        -4.712461         2.679516         0.192516
 H        -2.904595        -0.695557         0.589157
