19
Iteration:   583
 O         0.054380         0.123369        -0.132205
 C        -0.968532         0.474453         0.745922
 C        -1.419683         1.998593         0.994034
 C        -2.480443         1.059646         1.754750
 C        -1.322874         0.230003         2.307323
 C        -3.762661         1.730852         2.009128
 C        -4.142179         1.987497         0.476572
 O        -3.378614         0.902514        -0.336005
 C        -2.512040         0.205646         0.501113
 H         0.695380        -0.334806         0.442230
 H        -0.825030         2.586448         1.745507
 H        -1.697336         2.617838         0.181371
 H        -0.582490         0.735038         3.040266
 H        -1.594149        -0.774673         2.615813
 H        -4.471294         0.920370         2.319829
 H        -3.703031         2.579528         2.708942
 H        -5.265328         1.870826         0.332733
 H        -3.782739         2.955670         0.088329
 H        -2.766784        -0.857237         0.677337
