19
Iteration:  3471
 O         0.027366        -0.001005         0.012172
 C        -0.949289         0.599490         0.675791
 C        -1.265357         2.052490         1.056371
 C        -2.430712         1.150168         1.731577
 C        -1.346781         0.142649         2.175945
 C        -3.693657         1.942567         1.971592
 C        -4.367192         1.392781         0.681696
 O        -3.361414         1.145862        -0.386725
 C        -2.442594         0.328141         0.479045
 H        -0.140615         0.107703        -0.929863
 H        -0.728615         2.612751         1.788249
 H        -1.743922         2.672675         0.353185
 H        -0.473973         0.607243         2.704064
 H        -1.443118        -0.932442         2.222261
 H        -4.405464         1.626097         2.731356
 H        -3.422895         2.977364         2.081877
 H        -4.828568         0.395267         0.955283
 H        -5.145396         1.987703         0.291242
 H        -2.848948        -0.709582         0.668553
