19
Iteration:  2568charge 0 multiplicity 1
 O        -0.062613         0.028669        -0.151866
 C        -1.043511         0.472656         0.661151
 C        -1.205744         2.044964         0.992319
 C        -2.341622         1.230985         1.799664
 C        -1.362102         0.226532         2.247851
 C        -3.668734         1.883110         2.044751
 C        -4.424332         1.396890         0.644765
 O        -3.274452         1.091864        -0.355454
 C        -2.535979         0.312232         0.480359
 H         0.581275         0.779152        -0.219503
 H        -0.510948         2.359937         1.828139
 H        -1.334688         2.852955         0.270884
 H        -0.688850         0.515458         3.038144
 H        -1.811218        -0.692671         2.588115
 H        -4.236560         1.498558         2.930146
 H        -3.486870         3.017980         2.115447
 H        -4.885281         0.436250         0.704036
 H        -4.962999         2.179133         0.052795
 H        -2.767440        -0.728296         0.487638
