19
Iteration:  1955charge 0 multiplicity 1
 O         0.013439         0.179520        -0.184856
 C        -1.064787         0.389245         0.691191
 C        -1.213599         1.951411         1.128662
 C        -2.356829         1.236803         1.790933
 C        -1.375701         0.155151         2.164334
 C        -3.720209         1.784089         1.970162
 C        -4.339047         1.641935         0.530921
 O        -3.282542         1.082679        -0.313809
 C        -2.588821         0.300413         0.550078
 H         0.660359        -0.441497         0.145776
 H        -0.394308         2.292583         1.745265
 H        -1.352182         2.691563         0.384123
 H        -0.464787         0.483105         2.816098
 H        -1.743364        -0.770155         2.634558
 H        -4.377748         1.226976         2.619097
 H        -3.704209         2.800606         2.341968
 H        -5.174232         0.984889         0.367305
 H        -4.604905         2.665543         0.289530
 H        -3.109813        -0.673101         0.845916
