19
Iteration:  4657charge 0 multiplicity 1
 O         0.108808         0.022028        -0.074312
 C        -0.982861         0.542292         0.712019
 C        -1.270654         2.004063         1.049959
 C        -2.474808         1.104006         1.776269
 C        -1.290716         0.276722         2.317417
 C        -3.767531         1.686090         1.928760
 C        -4.425155         1.556468         0.597958
 O        -3.328161         1.140952        -0.411984
 C        -2.460305         0.315591         0.507410
 H         0.197830         0.576541        -0.852587
 H        -0.601316         2.537080         1.768085
 H        -1.544309         2.782676         0.307368
 H        -0.612475         0.672088         3.064028
 H        -1.526875        -0.801983         2.680435
 H        -4.397224         1.528468         2.814618
 H        -3.430302         2.724736         2.258969
 H        -5.216419         0.729698         0.525885
 H        -4.850882         2.467684         0.121014
 H        -2.917570        -0.693584         0.548695
