19
Iteration:   418
 O         0.082364         0.131136        -0.082983
 C        -1.007202         0.564653         0.721787
 C        -1.146700         1.930851         1.153446
 C        -2.380120         1.235637         1.799866
 C        -1.391846         0.081793         2.234651
 C        -3.800458         1.886157         1.953202
 C        -4.329205         1.664683         0.491209
 O        -3.374667         0.989254        -0.416467
 C        -2.535496         0.329550         0.513025
 H         0.180941        -0.812989        -0.175955
 H        -0.383030         2.263704         1.822376
 H        -1.197969         2.738227         0.425849
 H        -0.541349         0.261935         2.856829
 H        -1.809787        -0.876348         2.358465
 H        -4.345738         1.282491         2.685019
 H        -3.802231         2.953769         2.307464
 H        -5.191658         0.973248         0.641008
 H        -4.686394         2.617426         0.077804
 H        -2.929591        -0.681627         0.715820
