19
Iteration:  4010
 O         0.290112        -0.017838         0.102690
 C        -0.954665         0.505283         0.607671
 C        -1.314368         2.048077         1.059999
 C        -2.385252         1.223974         1.702701
 C        -1.332896         0.174585         2.088612
 C        -3.741895         1.812544         2.061926
 C        -4.360461         1.653933         0.641679
 O        -3.495747         1.004905        -0.339558
 C        -2.555475         0.322734         0.435056
 H         0.347624         0.278777        -0.865672
 H        -0.707635         2.450589         1.874705
 H        -1.668130         2.823110         0.344989
 H        -0.556706         0.374304         2.818486
 H        -1.623479        -0.824955         2.331355
 H        -4.394635         1.274548         2.752147
 H        -3.787766         2.867833         2.268069
 H        -5.376356         1.100238         0.659748
 H        -4.702854         2.652655         0.178076
 H        -2.969295        -0.730641         0.396604
