19
Iteration:  1659charge 0 multiplicity 1
 O         0.117174         0.044520        -0.077209
 C        -1.046979         0.445856         0.741960
 C        -1.142372         1.997010         1.215469
 C        -2.359367         1.262823         1.760227
 C        -1.307415         0.007070         2.237128
 C        -3.758318         1.629215         2.020249
 C        -4.396005         1.680540         0.465977
 O        -3.345912         1.313371        -0.408667
 C        -2.581655         0.364841         0.452440
 H        -0.287991        -0.721416        -0.603620
 H        -0.424776         2.399106         1.938751
 H        -1.396898         2.750570         0.476129
 H        -0.404100         0.341937         2.694442
 H        -1.623855        -0.899592         2.646621
 H        -4.438234         0.965593         2.654058
 H        -3.958417         2.671050         2.288670
 H        -5.270707         0.988736         0.468610
 H        -4.713030         2.720696         0.149988
 H        -3.184887        -0.620822         0.472579
