19
Iteration:  3817charge 0 multiplicity 1
 O        -0.071615        -0.133951        -0.032486
 C        -0.945984         0.591453         0.670208
 C        -1.236404         2.149769         1.018246
 C        -2.329292         1.199361         1.778623
 C        -1.242252         0.307460         2.226375
 C        -3.772702         1.513527         2.013820
 C        -4.326100         1.691628         0.589557
 O        -3.474596         1.008423        -0.394800
 C        -2.470531         0.460529         0.444732
 H         0.841873         0.092047         0.322020
 H        -0.467603         2.594213         1.666570
 H        -1.686929         2.860029         0.275990
 H        -0.483586         0.795758         2.974636
 H        -1.447454        -0.757094         2.297190
 H        -4.275902         0.570623         2.391482
 H        -4.089220         2.302556         2.682521
 H        -5.334290         1.319731         0.436011
 H        -4.326558         2.835149         0.395738
 H        -2.597439        -0.615983         0.623998
