19
Iteration:  1271
 O         0.109287        -0.049113         0.065738
 C        -0.957142         0.473136         0.686997
 C        -1.239570         1.982273         1.083753
 C        -2.393983         1.136194         1.658232
 C        -1.454661         0.131910         2.176459
 C        -3.667736         1.761568         2.096324
 C        -4.446323         1.778428         0.585155
 O        -3.345923         1.093956        -0.377931
 C        -2.495904         0.381931         0.349189
 H         0.485361         0.688855        -0.525455
 H        -0.727430         2.659512         1.886803
 H        -1.642315         2.615650         0.297419
 H        -0.667775         0.462395         2.858617
 H        -1.736352        -0.914301         2.352778
 H        -4.342850         0.940088         2.632112
 H        -3.425563         2.756925         2.601407
 H        -5.288665         1.120053         0.611446
 H        -4.633848         2.807568         0.297178
 H        -2.844877        -0.647150         0.483515
