19
Iteration:  2846charge 0 multiplicity 1
 O         0.008161         0.127304        -0.215167
 C        -0.953663         0.514843         0.719578
 C        -1.209845         1.988339         1.013813
 C        -2.371044         1.268993         1.807097
 C        -1.268166         0.116670         2.309392
 C        -3.765666         1.910785         2.033440
 C        -4.410912         1.444653         0.595145
 O        -3.360036         1.074532        -0.401518
 C        -2.516257         0.311394         0.531383
 H         0.488725        -0.667856         0.022704
 H        -0.491768         2.700863         1.535071
 H        -1.693541         2.664688         0.227710
 H        -0.591517         0.271276         3.223365
 H        -1.767503        -0.841819         2.294862
 H        -4.340079         1.539779         2.957096
 H        -3.613969         3.017559         1.978927
 H        -5.094438         0.620312         0.632619
 H        -4.751904         2.393511         0.147767
 H        -3.042893        -0.631093         0.855508
