19
Iteration:  1706
 O         0.196635        -0.001280         0.119690
 C        -0.981901         0.532018         0.660444
 C        -1.380696         1.987640         1.140314
 C        -2.396192         1.039188         1.679378
 C        -1.344090         0.097657         2.178407
 C        -3.641734         1.698613         2.093844
 C        -4.265150         1.799782         0.562973
 O        -3.461760         1.176067        -0.417358
 C        -2.572388         0.376022         0.335777
 H         0.017459        -0.136064        -0.805299
 H        -0.781580         2.450192         1.914499
 H        -1.620838         2.738516         0.314555
 H        -0.810524         0.276708         3.119651
 H        -1.706003        -0.884453         2.173095
 H        -4.220689         1.072787         2.803440
 H        -3.631205         2.772228         2.491709
 H        -5.255594         1.389881         0.333265
 H        -4.256543         2.830238         0.370546
 H        -2.978474        -0.718460         0.370711
