19
Iteration:  4709charge 0 multiplicity 1
 O         0.046409         0.111428        -0.065286
 C        -0.996370         0.630949         0.700738
 C        -1.229553         2.089325         1.071501
 C        -2.366532         1.182421         1.835582
 C        -1.292381         0.183957         2.298848
 C        -3.794695         1.633614         1.973137
 C        -4.306082         1.667200         0.439970
 O        -3.361310         0.965243        -0.339882
 C        -2.499712         0.309240         0.486294
 H        -0.356436        -0.593530        -0.593232
 H        -0.588871         2.662089         1.741543
 H        -1.720947         2.630181         0.317989
 H        -0.617611         0.702801         3.075883
 H        -1.644263        -0.870675         2.279735
 H        -4.259143         0.823077         2.646133
 H        -3.989326         2.552513         2.516327
 H        -5.355060         1.431324         0.205821
 H        -4.229124         2.747032         0.077013
 H        -2.846899        -0.711318         0.679149
