19
Iteration:   912
 O         0.010326        -0.102844        -0.028861
 C        -0.986324         0.553075         0.763210
 C        -1.297257         2.088805         1.090753
 C        -2.398684         1.164279         1.673209
 C        -1.250688         0.277588         2.297383
 C        -3.791063         1.639598         1.987196
 C        -4.307884         1.703512         0.557565
 O        -3.272849         1.137392        -0.403537
 C        -2.553722         0.262017         0.442649
 H        -0.004348         0.170174        -0.921800
 H        -0.621352         2.569008         1.829095
 H        -1.596694         2.788396         0.250943
 H        -0.732792         0.728706         3.160125
 H        -1.772909        -0.772876         2.564434
 H        -4.230975         0.801218         2.567387
 H        -3.825602         2.608486         2.456597
 H        -5.268990         1.236254         0.328073
 H        -4.374703         2.783841         0.220242
 H        -2.815562        -0.777742         0.853270
