19
Iteration:  1238charge 0 multiplicity 1
 O         0.191994        -0.044085         0.123631
 C        -0.984841         0.517285         0.657433
 C        -1.116311         1.941037         0.986917
 C        -2.440598         1.161034         1.788724
 C        -1.257338         0.142685         2.126565
 C        -3.878909         1.627738         2.050021
 C        -4.405239         1.863664         0.543027
 O        -3.415044         1.172691        -0.356559
 C        -2.571080         0.405258         0.433385
 H         0.034270        -0.489563        -0.700290
 H        -0.433426         2.476212         1.729070
 H        -1.498694         2.674674         0.305484
 H        -0.459562         0.561303         2.737471
 H        -1.442770        -0.873407         2.445840
 H        -4.445082         0.679929         2.459627
 H        -3.983928         2.448610         2.820601
 H        -5.252489         1.279062         0.273214
 H        -4.621067         2.884529         0.218575
 H        -2.949186        -0.639352         0.544259
