19
Iteration:  3367charge 0 multiplicity 1
 O         0.133054        -0.014651         0.009176
 C        -0.979307         0.559983         0.679823
 C        -1.346300         1.947566         0.913774
 C        -2.438563         1.150185         1.791068
 C        -1.157257         0.352831         2.264260
 C        -3.835833         1.546357         2.085134
 C        -4.295885         1.856359         0.551846
 O        -3.463593         1.063995        -0.356731
 C        -2.531407         0.239549         0.486993
 H         0.151570         0.270865        -0.927597
 H        -0.596199         2.596108         1.421714
 H        -1.622214         2.434442        -0.087318
 H        -0.291870         0.805403         2.755870
 H        -1.232942        -0.644275         2.799629
 H        -4.353774         0.757507         2.678611
 H        -3.873272         2.494151         2.660281
 H        -5.308241         1.432959         0.321685
 H        -4.207111         2.988759         0.432441
 H        -2.842996        -0.805833         0.371840
