19
Iteration:  2853
 O        -0.015594         0.145531        -0.197709
 C        -0.953674         0.502283         0.767904
 C        -1.253713         2.017371         1.005524
 C        -2.323411         1.224468         1.805669
 C        -1.292825         0.110870         2.228998
 C        -3.724195         1.901937         1.956614
 C        -4.387720         1.518827         0.574267
 O        -3.397957         1.066716        -0.315961
 C        -2.477174         0.301186         0.569243
 H         0.615996        -0.484874         0.141084
 H        -0.480549         2.514000         1.535160
 H        -1.685281         2.359803         0.074414
 H        -0.638742         0.387557         3.031437
 H        -1.806421        -0.918267         2.464158
 H        -4.486441         1.609364         2.714735
 H        -3.610499         2.971392         2.139177
 H        -4.957875         0.539478         0.654023
 H        -4.986916         2.400315         0.159022
 H        -2.870305        -0.730217         0.538254
