19
Iteration:  3528charge 0 multiplicity 1
 O         0.062906        -0.009307         0.015912
 C        -0.985344         0.568729         0.771983
 C        -1.236978         2.038776         0.881155
 C        -2.316349         1.318763         1.671583
 C        -1.242760         0.304708         2.270574
 C        -3.768430         1.489750         2.008615
 C        -4.342492         1.791500         0.616348
 O        -3.476732         0.969688        -0.333367
 C        -2.565158         0.276527         0.481366
 H         0.268251         0.565442        -0.767075
 H        -0.705380         2.677134         1.528634
 H        -1.529944         2.580745        -0.031888
 H        -0.354204         0.500746         2.853097
 H        -1.403045        -0.789197         2.398656
 H        -4.102526         0.545109         2.477231
 H        -4.056571         2.302019         2.696836
 H        -5.416600         1.588028         0.434105
 H        -4.018043         2.841836         0.379351
 H        -3.050761        -0.689290         0.829721
