19
Iteration:  4241charge 0 multiplicity 1
 O        -0.023591         0.006286        -0.182416
 C        -0.920176         0.542486         0.726788
 C        -1.188101         1.995510         1.116040
 C        -2.367363         1.211525         1.782837
 C        -1.296721         0.254762         2.338158
 C        -3.903943         1.637674         1.977464
 C        -4.300823         1.696453         0.482893
 O        -3.416782         0.987189        -0.356426
 C        -2.494873         0.371854         0.526910
 H         0.783905         0.584408        -0.222782
 H        -0.395042         2.439394         1.741861
 H        -1.389092         2.651043         0.200528
 H        -0.466369         0.629416         3.081840
 H        -1.462743        -0.750387         2.696837
 H        -4.433532         0.845454         2.604417
 H        -4.010563         2.638081         2.380181
 H        -5.333209         1.416016         0.157695
 H        -4.277749         2.754171         0.093401
 H        -2.790389        -0.675071         0.606184
