19
Iteration:  2776charge 0 multiplicity 1
 O         0.114074        -0.142349         0.035995
 C        -0.994949         0.539445         0.631849
 C        -1.358861         2.092639         0.898416
 C        -2.329579         1.242263         1.722455
 C        -1.205410         0.317207         2.191629
 C        -3.791246         1.674083         2.091111
 C        -4.340052         1.624622         0.612818
 O        -3.430410         1.114824        -0.294183
 C        -2.532942         0.288537         0.490646
 H         0.494114         0.504763        -0.588488
 H        -0.623751         2.616359         1.468219
 H        -1.683658         2.756010         0.085510
 H        -0.410402         0.662881         2.826800
 H        -1.518517        -0.806864         2.237695
 H        -4.251569         0.815756         2.629069
 H        -4.037130         2.652150         2.502104
 H        -5.212079         0.960713         0.642847
 H        -4.531589         2.600364         0.163503
 H        -3.003414        -0.712890         0.637765
