19
Iteration:  2970charge 0 multiplicity 1
 O         0.017391         0.098662        -0.127909
 C        -0.969872         0.637017         0.637925
 C        -1.374344         2.019939         0.988751
 C        -2.441169         1.048761         1.797246
 C        -1.227257         0.245286         2.230080
 C        -3.804174         1.712227         2.021200
 C        -4.142274         1.831255         0.531841
 O        -3.404591         0.927417        -0.243183
 C        -2.529391         0.270406         0.528069
 H         0.122925        -0.859479        -0.118866
 H        -0.776707         2.524654         1.772077
 H        -1.757481         2.592976         0.123355
 H        -0.414156         0.586709         2.888657
 H        -1.260068        -0.859629         2.439665
 H        -4.560195         1.144086         2.565031
 H        -3.874519         2.667219         2.600353
 H        -5.199745         1.566854         0.242210
 H        -4.064362         2.850075         0.096562
 H        -2.638113        -0.849397         0.641968
