19
Iteration:  2668charge 0 multiplicity 1
 O        -0.028730         0.006271        -0.201903
 C        -0.953871         0.583273         0.680789
 C        -1.379469         2.047532         0.937771
 C        -2.455168         1.136137         1.827954
 C        -1.200274         0.292061         2.237322
 C        -3.822749         1.662942         2.021139
 C        -4.159778         1.866317         0.527075
 O        -3.418899         0.869438        -0.238122
 C        -2.499718         0.277547         0.595921
 H         0.793107         0.486380        -0.082352
 H        -0.530606         2.439778         1.594673
 H        -1.680549         2.732444         0.135682
 H        -0.575304         0.772288         2.964198
 H        -1.354988        -0.770339         2.594222
 H        -4.504056         0.793499         2.385482
 H        -4.037107         2.525975         2.666004
 H        -5.194232         1.562786         0.422856
 H        -4.044598         2.807089        -0.092993
 H        -2.542871        -0.801507         0.650914
