19
Iteration:  3926
 O        -0.014459         0.015564        -0.066078
 C        -0.899090         0.622447         0.766890
 C        -1.319168         2.063713         1.156054
 C        -2.384953         1.220533         1.761729
 C        -1.160565         0.172336         2.174255
 C        -3.784455         1.647676         1.957539
 C        -4.236279         1.854204         0.451012
 O        -3.528200         0.827692        -0.351833
 C        -2.461589         0.328983         0.611736
 H        -0.290124         0.497287        -0.856031
 H        -0.623728         2.622502         1.748352
 H        -1.531242         2.577421         0.166604
 H        -0.479668         0.723299         2.935499
 H        -1.435245        -0.859276         2.232137
 H        -4.471910         0.820201         2.276712
 H        -4.049202         2.525817         2.535468
 H        -5.215926         1.542454         0.494548
 H        -3.973311         2.788392         0.095181
 H        -2.772659        -0.699876         0.648560
