19
Iteration:  2526
 O        -0.036955        -0.055483        -0.190828
 C        -1.020560         0.592365         0.681499
 C        -1.182647         2.035592         1.136897
 C        -2.378503         1.223473         1.814114
 C        -1.172799         0.225711         2.205761
 C        -3.756702         1.834704         2.008890
 C        -4.470624         1.488991         0.596260
 O        -3.350949         1.050149        -0.392604
 C        -2.527292         0.381683         0.512144
 H         0.874725         0.065044         0.117973
 H        -0.406533         2.567378         1.817770
 H        -1.543609         2.627308         0.284761
 H        -0.377135         0.467146         2.825145
 H        -1.515815        -0.801087         2.459654
 H        -4.329147         1.571898         2.919273
 H        -3.785920         2.919911         2.140187
 H        -5.270703         0.622760         0.614795
 H        -5.027966         2.336853         0.101897
 H        -2.783138        -0.724583         0.713180
