19
Iteration:  4243
 O        -0.023854         0.006901        -0.180514
 C        -0.921251         0.547052         0.737658
 C        -1.181247         2.001069         1.119654
 C        -2.368808         1.214750         1.755508
 C        -1.259867         0.245020         2.343982
 C        -3.916040         1.651469         1.983902
 C        -4.320790         1.696327         0.482160
 O        -3.418234         1.004831        -0.348299
 C        -2.498955         0.346396         0.506677
 H         0.777904         0.544168        -0.170261
 H        -0.414353         2.488468         1.774072
 H        -1.416317         2.554214         0.236122
 H        -0.540791         0.580647         3.084655
 H        -1.393646        -0.766297         2.709325
 H        -4.422546         0.877319         2.571682
 H        -3.988355         2.676582         2.366035
 H        -5.315131         1.350316         0.105645
 H        -4.291602         2.749982         0.108233
 H        -2.802808        -0.715175         0.652235
