19
Iteration:  3877
 O         0.117281         0.320678        -0.053992
 C        -1.022109         0.443587         0.753367
 C        -1.423633         1.964196         0.953600
 C        -2.386251         1.079959         1.712099
 C        -1.256428         0.188193         2.258408
 C        -3.691667         1.741413         2.045816
 C        -4.228190         1.905366         0.540995
 O        -3.436960         0.886367        -0.333793
 C        -2.559230         0.179751         0.518299
 H         0.171232        -0.581732        -0.464599
 H        -0.744228         2.692327         1.493514
 H        -1.798155         2.415937         0.043010
 H        -0.467726         0.575037         2.856542
 H        -1.606498        -0.845901         2.550163
 H        -4.324606         1.042758         2.578447
 H        -3.551765         2.666744         2.659939
 H        -5.275094         1.536923         0.304547
 H        -3.838529         2.903221         0.236006
 H        -3.117141        -0.786695         0.692723
