19
Iteration:  4214charge 0 multiplicity 1
 O        -0.045994         0.053843        -0.089361
 C        -1.002473         0.559199         0.714184
 C        -1.303455         2.104155         1.057416
 C        -2.305088         1.240904         1.726703
 C        -1.331438         0.227021         2.306861
 C        -3.804271         1.588203         1.972824
 C        -4.164074         1.839949         0.504549
 O        -3.359365         0.888726        -0.317394
 C        -2.554267         0.227321         0.541322
 H         0.479375         0.759993        -0.567853
 H        -0.499831         2.625749         1.612189
 H        -1.569311         2.699637         0.177643
 H        -0.612949         0.482892         3.113656
 H        -1.758883        -0.848503         2.324567
 H        -4.240867         0.663112         2.375238
 H        -4.116617         2.330564         2.754607
 H        -5.201286         1.726394         0.167705
 H        -3.967926         2.818059         0.090221
 H        -2.924911        -0.828773         0.711606
