19
Iteration:  2073charge 0 multiplicity 1
 O        -0.068426         0.080714        -0.200945
 C        -1.013119         0.570574         0.639471
 C        -1.379155         2.048514         1.124119
 C        -2.410024         1.110160         1.750314
 C        -1.291221         0.296521         2.289765
 C        -3.728597         1.709257         2.037981
 C        -4.148240         1.820667         0.517357
 O        -3.414916         0.869135        -0.321147
 C        -2.458931         0.233978         0.480960
 H         0.592263        -0.480151         0.284558
 H        -0.584189         2.280306         1.891992
 H        -1.723185         2.883975         0.447406
 H        -0.528881         0.805778         3.030893
 H        -1.500903        -0.751860         2.598112
 H        -4.356888         1.095945         2.744420
 H        -3.669820         2.673237         2.480127
 H        -5.208551         1.704451         0.261240
 H        -3.853975         2.872462         0.192703
 H        -2.767562        -0.805345         0.466980
