19
Iteration:  2986charge 0 multiplicity 1
 O         0.050392         0.217092        -0.195792
 C        -1.059678         0.494057         0.725893
 C        -1.386487         2.016617         1.076341
 C        -2.384179         1.180180         1.821251
 C        -1.222096         0.160062         2.208053
 C        -3.746052         1.759336         2.071887
 C        -4.213958         1.853329         0.479706
 O        -3.435169         0.856992        -0.386056
 C        -2.511270         0.187065         0.564468
 H         0.361963        -0.558209         0.273553
 H        -0.536646         2.527338         1.524431
 H        -1.809583         2.662598         0.305834
 H        -0.503936         0.630752         2.933913
 H        -1.635023        -0.811701         2.429415
 H        -4.408638         1.110528         2.676062
 H        -3.589712         2.756730         2.444905
 H        -5.304086         1.664929         0.443393
 H        -3.809486         2.840102         0.256282
 H        -2.805838        -0.859651         0.776607
