19
Iteration:    82
 O         0.121085         0.040419        -0.015483
 C        -0.974029         0.502462         0.745031
 C        -1.252454         1.994067         0.995882
 C        -2.386486         1.235832         1.845638
 C        -1.342318         0.158930         2.249165
 C        -3.752713         1.859563         1.916865
 C        -4.398131         1.531001         0.533829
 O        -3.332948         1.140190        -0.345251
 C        -2.520241         0.325496         0.461236
 H        -0.145963        -0.784667        -0.505427
 H        -0.582723         2.734343         1.556440
 H        -1.765305         2.482114         0.087866
 H        -0.455438         0.398561         2.936729
 H        -1.745623        -0.911959         2.541221
 H        -4.410134         1.516915         2.744666
 H        -3.710027         2.997316         1.951544
 H        -5.087162         0.703673         0.789827
 H        -4.962178         2.414266         0.223969
 H        -2.697952        -0.762147         0.610417
