19
Iteration:  2806
 O         0.054015        -0.051363        -0.025487
 C        -0.960168         0.571422         0.746625
 C        -1.193837         2.095828         0.967840
 C        -2.311852         1.220717         1.691645
 C        -1.223007         0.270002         2.267064
 C        -3.783681         1.699392         2.029260
 C        -4.468368         1.521003         0.632114
 O        -3.405838         1.121225        -0.369107
 C        -2.498492         0.357781         0.461278
 H        -0.512598        -0.361817        -0.775652
 H        -0.488880         2.457184         1.681065
 H        -1.438275         2.615482         0.072273
 H        -0.476508         0.599915         3.004420
 H        -1.449508        -0.767728         2.328852
 H        -4.162125         1.133014         2.815407
 H        -3.966117         2.739544         2.285675
 H        -5.341819         0.758445         0.706804
 H        -4.788094         2.464491         0.216565
 H        -2.944841        -0.626922         0.565199
