19
Iteration:    91
 O         0.123594         0.045847        -0.028353
 C        -1.003864         0.538151         0.676537
 C        -1.233180         2.037640         1.015468
 C        -2.360234         1.212080         1.788166
 C        -1.325746         0.129873         2.176424
 C        -3.805672         1.885011         1.974405
 C        -4.430155         1.519612         0.470265
 O        -3.294557         1.102298        -0.271244
 C        -2.544440         0.322466         0.578156
 H         0.012681        -0.936160        -0.151855
 H        -0.500270         2.544037         1.706708
 H        -1.579586         2.752227         0.212773
 H        -0.533815         0.453733         2.856548
 H        -1.796355        -0.899419         2.325788
 H        -4.369588         1.685408         2.853855
 H        -3.510620         2.974913         1.941141
 H        -5.166202         0.675152         0.488066
 H        -4.872324         2.297042        -0.095052
 H        -2.979068        -0.689860         0.641792
