19
Iteration:   563charge 0 multiplicity 1
 O         0.058775         0.188320        -0.066354
 C        -0.963386         0.500382         0.747544
 C        -1.338097         1.938807         1.001917
 C        -2.386026         1.161618         1.874744
 C        -1.183999         0.032320         2.215074
 C        -3.884287         1.756335         1.923378
 C        -4.111678         1.926106         0.382773
 O        -3.480654         0.917077        -0.312308
 C        -2.630217         0.242229         0.596678
 H         0.877814         0.188067         0.556915
 H        -0.532446         2.582425         1.464536
 H        -1.691176         2.374407         0.063300
 H        -0.414360         0.389448         2.918739
 H        -1.556783        -0.973539         2.285506
 H        -4.679881         1.198123         2.545083
 H        -3.851327         2.842046         2.205091
 H        -5.254659         1.835560         0.180330
 H        -3.813269         2.942517         0.264831
 H        -2.846133        -0.806304         0.803482
