19
Iteration:  3720charge 0 multiplicity 1
 O         0.176722         0.032836        -0.067253
 C        -1.000254         0.538384         0.615040
 C        -1.188006         2.024492         1.110957
 C        -2.403343         1.213003         1.828094
 C        -1.272686         0.133720         2.207996
 C        -3.716797         1.929293         2.076612
 C        -4.493084         1.535605         0.450216
 O        -3.478369         0.977761        -0.359999
 C        -2.532138         0.312077         0.471254
 H         0.538616         0.928733        -0.310769
 H        -0.419014         2.285548         1.831622
 H        -1.514325         2.874535         0.477792
 H        -0.449488         0.196664         2.961858
 H        -1.623693        -0.816616         2.166314
 H        -4.401667         1.420241         2.784225
 H        -3.511702         2.917670         2.433478
 H        -5.339997         0.936749         0.813723
 H        -4.709283         2.490267        -0.070720
 H        -2.945867        -0.690735         0.756385
