19
Iteration:   786charge 0 multiplicity 1
 O        -0.022901        -0.027355        -0.015868
 C        -1.041678         0.549354         0.680254
 C        -1.330904         2.026418         1.018184
 C        -2.372715         1.219065         1.822918
 C        -1.127681         0.217971         2.200150
 C        -3.868540         1.644177         1.948027
 C        -4.260919         1.699409         0.436979
 O        -3.284600         1.082471        -0.332302
 C        -2.620836         0.339388         0.559114
 H         0.653167        -0.072040         0.693580
 H        -0.448725         2.623050         1.448761
 H        -1.659134         2.561327         0.175816
 H        -0.237753         0.517084         2.794428
 H        -1.402305        -0.773504         2.400838
 H        -4.419857         0.904282         2.525222
 H        -4.100836         2.586952         2.510891
 H        -5.246447         1.224926         0.079989
 H        -4.202511         2.809155         0.226711
 H        -3.016928        -0.654593         0.858938
