19
Iteration:  3797
 O        -0.058798        -0.096308        -0.113369
 C        -0.909066         0.577915         0.778044
 C        -1.233510         2.114000         0.930900
 C        -2.400829         1.253402         1.757351
 C        -1.234269         0.236401         2.218374
 C        -3.860048         1.568517         2.058730
 C        -4.386696         1.683388         0.534826
 O        -3.302544         1.110533        -0.323631
 C        -2.479074         0.303899         0.533461
 H         0.745950         0.436237        -0.282856
 H        -0.677647         2.722951         1.622566
 H        -1.533062         2.644371        -0.001899
 H        -0.551048         0.535508         3.046341
 H        -1.623352        -0.699707         2.498463
 H        -4.170741         0.700828         2.673335
 H        -4.045879         2.478067         2.614493
 H        -5.327169         1.148799         0.397511
 H        -4.723762         2.711312         0.287242
 H        -2.747294        -0.800028         0.529536
