19
Iteration:  1963charge 0 multiplicity 1
 O         0.052601         0.139542        -0.149743
 C        -1.047695         0.504128         0.643918
 C        -1.213942         1.954026         1.124089
 C        -2.388996         1.228223         1.809760
 C        -1.309528         0.145416         2.170901
 C        -3.712628         1.782871         2.007089
 C        -4.338900         1.686212         0.514232
 O        -3.335570         1.076378        -0.353081
 C        -2.609239         0.276936         0.591674
 H         0.466985        -0.639135         0.213088
 H        -0.547920         2.216610         1.950878
 H        -1.411903         2.730093         0.302144
 H        -0.385413         0.355163         2.852679
 H        -1.663309        -0.948300         2.189079
 H        -4.306082         1.202850         2.748301
 H        -3.768531         2.807103         2.286017
 H        -5.205205         1.007729         0.458353
 H        -4.600153         2.600218        -0.057528
 H        -3.077146        -0.752443         0.891034
