19
Iteration:  3078charge 0 multiplicity 1
 O         0.041690        -0.141559        -0.123612
 C        -0.978975         0.519068         0.680884
 C        -1.299483         2.063343         0.900817
 C        -2.429060         1.197381         1.750965
 C        -1.156520         0.315714         2.257330
 C        -3.916989         1.534335         2.073297
 C        -4.298842         1.753383         0.630788
 O        -3.349992         1.131915        -0.351481
 C        -2.514751         0.336461         0.553063
 H         0.872733         0.381360         0.007172
 H        -0.548287         2.654461         1.532993
 H        -1.620242         2.605650        -0.038739
 H        -0.668295         1.054224         3.009198
 H        -1.468351        -0.707619         2.624798
 H        -4.343275         0.531873         2.419606
 H        -4.231641         2.433483         2.759923
 H        -5.249477         1.386682         0.306977
 H        -4.183461         2.825412         0.437226
 H        -2.969753        -0.695734         0.507736
