19
Iteration:  2264
 O        -0.116735         0.070622        -0.135429
 C        -0.956869         0.557436         0.727511
 C        -1.247413         1.990427         1.074251
 C        -2.437118         1.175990         1.752540
 C        -1.174139         0.164507         2.201216
 C        -3.693637         1.867112         1.956883
 C        -4.475707         1.549016         0.493731
 O        -3.296733         1.035915        -0.281273
 C        -2.541612         0.319395         0.537920
 H         0.800450         0.029960         0.114653
 H        -0.715217         2.409770         1.876030
 H        -1.554032         2.720954         0.297948
 H        -0.303224         0.557080         2.795409
 H        -1.316770        -0.947854         2.644457
 H        -4.233229         1.520884         2.827282
 H        -3.553334         2.946732         2.091516
 H        -5.197146         0.788832         0.553507
 H        -4.739942         2.474686         0.021497
 H        -2.740032        -0.733867         0.646183
