19
Iteration:   132
 O        -0.020486        -0.055560        -0.118604
 C        -0.905050         0.518032         0.752996
 C        -1.232392         2.066032         1.072888
 C        -2.383110         1.170493         1.746304
 C        -1.358307         0.196267         2.383636
 C        -3.717516         1.769358         1.999673
 C        -4.420888         1.622774         0.488361
 O        -3.414582         1.044211        -0.395083
 C        -2.419719         0.373410         0.422586
 H         0.831121         0.279048         0.137651
 H        -0.524736         2.632812         1.635616
 H        -1.459701         2.627265         0.185224
 H        -0.716885         0.567068         3.131276
 H        -1.796829        -0.747823         2.584633
 H        -4.333312         1.260152         2.699292
 H        -3.597304         2.831001         2.246795
 H        -5.383941         1.095509         0.545815
 H        -4.585149         2.632276         0.125016
 H        -2.709523        -0.640917         0.658181
