19
Iteration:  1646charge 0 multiplicity 1
 O        -0.022486        -0.001010        -0.114802
 C        -1.001577         0.501585         0.664144
 C        -1.231995         1.977340         1.251438
 C        -2.376864         1.110084         1.822316
 C        -1.313897         0.147014         2.227653
 C        -3.838053         1.707874         1.961827
 C        -4.360567         1.681452         0.555029
 O        -3.240315         1.275931        -0.396784
 C        -2.461440         0.411385         0.404953
 H        -0.176757        -0.890523        -0.400555
 H        -0.435174         2.274918         1.975183
 H        -1.454698         2.693497         0.508125
 H        -0.537009         0.413414         2.922811
 H        -1.748560        -0.880386         2.391015
 H        -4.340376         0.956452         2.613030
 H        -3.769869         2.625332         2.501484
 H        -5.125185         0.892985         0.380004
 H        -4.831633         2.685144         0.219234
 H        -2.834918        -0.638020         0.556612
