19
Iteration:   342charge 0 multiplicity 1
 O         0.097884        -0.046202         0.055616
 C        -0.960616         0.527294         0.747642
 C        -1.127122         2.032852         1.044578
 C        -2.338155         1.326639         1.753154
 C        -1.262541         0.181404         2.221132
 C        -3.869696         1.699458         1.933620
 C        -4.430402         1.636638         0.553639
 O        -3.396096         1.147026        -0.405976
 C        -2.539079         0.317859         0.453678
 H         0.011193        -0.866705        -0.509944
 H        -0.546915         2.547059         1.785435
 H        -1.341595         2.693568         0.168318
 H        -0.546660         0.522370         2.940557
 H        -1.706571        -0.745249         2.459065
 H        -4.269807         0.853097         2.499460
 H        -3.960077         2.627214         2.560578
 H        -5.424895         1.089255         0.524287
 H        -4.626613         2.682065         0.325549
 H        -2.956753        -0.715715         0.498327
