19
Iteration:  3165charge 0 multiplicity 1
 O         0.018641         0.136942        -0.141325
 C        -0.935606         0.510850         0.744905
 C        -1.212351         1.929621         1.013674
 C        -2.418574         1.074944         1.786210
 C        -1.252246         0.204849         2.212584
 C        -3.766680         1.896871         1.995667
 C        -4.400404         1.618412         0.557216
 O        -3.394148         1.030729        -0.337888
 C        -2.576596         0.296941         0.518796
 H         0.916242         0.081560         0.247866
 H        -0.645091         2.466245         1.801191
 H        -1.467693         2.599110         0.154471
 H        -0.515424         0.492783         2.999138
 H        -1.448562        -0.815373         2.467201
 H        -4.494377         1.460459         2.724187
 H        -3.336682         2.937454         2.105484
 H        -5.185368         0.841180         0.710931
 H        -4.737629         2.575126         0.147603
 H        -2.811933        -0.752684         0.489796
