19
Iteration:   431
 O         0.079256         0.078857        -0.084343
 C        -0.959686         0.473002         0.698006
 C        -1.212499         2.062144         1.160832
 C        -2.368307         1.231632         1.714467
 C        -1.419404         0.165993         2.281300
 C        -3.680236         1.781473         2.002814
 C        -4.429193         1.681569         0.530815
 O        -3.340368         1.008905        -0.385487
 C        -2.476348         0.346070         0.437142
 H        -0.220186        -0.883099        -0.180349
 H        -0.527059         2.382500         1.979041
 H        -1.588388         2.676400         0.377086
 H        -0.916720         0.235303         3.270684
 H        -1.941302        -0.762320         2.313411
 H        -4.275798         1.175939         2.763423
 H        -3.587989         2.860260         2.347715
 H        -5.446397         1.118731         0.320828
 H        -4.464662         2.587524        -0.043591
 H        -2.773872        -0.732121         0.594500
