19
Iteration:  3219
 O        -0.054389        -0.190281        -0.014766
 C        -0.900807         0.526229         0.690488
 C        -1.199451         2.111222         0.991407
 C        -2.361000         1.315231         1.687331
 C        -1.184888         0.292745         2.226205
 C        -3.866554         1.566303         2.081848
 C        -4.507966         1.544161         0.593570
 O        -3.373562         1.170027        -0.351767
 C        -2.463342         0.426492         0.420681
 H         0.902861        -0.008968         0.168204
 H        -0.514187         2.641450         1.669295
 H        -1.707502         2.751332         0.243226
 H        -0.330797         0.840002         2.732193
 H        -1.150355        -0.754931         2.430882
 H        -4.227895         0.840644         2.862085
 H        -3.893342         2.586313         2.633673
 H        -5.479169         0.975510         0.080641
 H        -4.687320         2.641896         0.268850
 H        -2.741158        -0.622154         0.608932
