19
Iteration:  3520charge 0 multiplicity 1
 O         0.133756        -0.048835        -0.006656
 C        -0.955533         0.532695         0.731367
 C        -1.183079         1.998091         0.882484
 C        -2.409846         1.316155         1.713089
 C        -1.219240         0.329317         2.224185
 C        -3.818429         1.515037         2.065418
 C        -4.347659         1.721991         0.599469
 O        -3.460951         1.034770        -0.300784
 C        -2.587537         0.324333         0.472970
 H         0.168157         0.630371        -0.714916
 H        -0.474935         2.540438         1.604371
 H        -1.375131         2.591432        -0.064211
 H        -0.553192         0.775864         2.915029
 H        -1.674198        -0.652548         2.393722
 H        -4.169467         0.595369         2.593897
 H        -4.059660         2.408650         2.709717
 H        -5.422539         1.409398         0.526092
 H        -4.525279         2.737078         0.079482
 H        -2.897327        -0.709801         0.747141
