19
Iteration:  3272
 O        -0.021740         0.125175        -0.195382
 C        -1.002149         0.523504         0.705306
 C        -1.320741         2.008067         0.970686
 C        -2.397038         1.264341         1.827140
 C        -1.238534         0.174879         2.312277
 C        -3.815541         1.694579         1.968093
 C        -4.232545         1.707341         0.585384
 O        -3.391283         0.987668        -0.354517
 C        -2.503391         0.202117         0.600271
 H         0.876418         0.418712         0.103268
 H        -0.492790         2.567427         1.385880
 H        -1.469411         2.404613        -0.045275
 H        -0.477173         0.522624         3.115402
 H        -1.647281        -0.879517         2.519774
 H        -4.476549         1.309894         2.741809
 H        -3.666050         2.744103         2.309903
 H        -5.263889         1.303088         0.384512
 H        -4.323907         2.769836         0.074135
 H        -2.816206        -0.909134         0.710977
