19
Iteration:  4199charge 0 multiplicity 1
 O         0.034818         0.040611        -0.059441
 C        -0.993242         0.566719         0.772397
 C        -1.348045         1.988342         0.964885
 C        -2.466733         1.113174         1.822807
 C        -1.193950         0.212627         2.236550
 C        -3.844725         1.604533         1.982016
 C        -4.157876         1.883653         0.470103
 O        -3.452317         0.955407        -0.333088
 C        -2.467037         0.283683         0.547783
 H         0.324757         0.838033        -0.525532
 H        -0.739883         2.599583         1.648841
 H        -1.752362         2.487362         0.105037
 H        -0.482535         0.602978         2.954375
 H        -1.355152        -0.775390         2.648782
 H        -4.523756         0.839323         2.366619
 H        -3.869262         2.610347         2.392937
 H        -5.241578         1.831794         0.243889
 H        -3.798347         2.935626         0.341698
 H        -2.704430        -0.791920         0.682648
