19
Iteration:  2930charge 0 multiplicity 1
 O         0.120230        -0.056601        -0.011888
 C        -1.066238         0.544193         0.684416
 C        -1.218503         2.046658         0.878636
 C        -2.394896         1.243594         1.784284
 C        -1.266958         0.360333         2.225431
 C        -3.824992         1.507885         2.085315
 C        -4.217268         1.745852         0.610714
 O        -3.432228         1.030942        -0.349619
 C        -2.536533         0.337133         0.521373
 H        -0.139179         0.180568        -0.940901
 H        -0.456343         2.527796         1.477201
 H        -1.517437         2.609524        -0.031051
 H        -0.331329         0.636132         2.688316
 H        -1.603393        -0.676350         2.584351
 H        -4.331710         0.580170         2.470468
 H        -4.039541         2.312229         2.773011
 H        -5.349880         1.563700         0.447401
 H        -4.330821         2.820615         0.300713
 H        -3.076701        -0.616399         0.673298
