19
Iteration:  1253charge 0 multiplicity 1
 O         0.226039        -0.071058         0.103372
 C        -0.938223         0.498004         0.729617
 C        -1.217114         2.030140         1.030991
 C        -2.382382         1.151540         1.719334
 C        -1.329629         0.124263         2.189129
 C        -3.787121         1.654809         1.997167
 C        -4.355559         1.733228         0.589842
 O        -3.494724         1.223387        -0.389956
 C        -2.569508         0.390534         0.434479
 H         0.083267         0.089165        -0.882269
 H        -0.390868         2.322923         1.654036
 H        -1.320497         2.581903         0.019072
 H        -0.656072         0.385599         3.058352
 H        -1.739029        -0.893934         2.152430
 H        -4.389219         0.943127         2.608181
 H        -3.951479         2.608236         2.453542
 H        -5.425200         1.336048         0.666105
 H        -4.445874         2.849805         0.280244
 H        -2.983674        -0.689639         0.430804
