19
Iteration:  1098
 O         0.196317         0.055121         0.084975
 C        -1.003691         0.529317         0.722408
 C        -1.264263         1.989379         0.970860
 C        -2.353192         1.122189         1.754025
 C        -1.203742         0.151132         2.173871
 C        -3.888351         1.611405         1.944932
 C        -4.262775         1.889782         0.602155
 O        -3.500483         1.098215        -0.383625
 C        -2.585007         0.284193         0.459272
 H         0.050547        -0.832351        -0.209319
 H        -0.534038         2.582026         1.640202
 H        -1.514510         2.529327         0.089956
 H        -0.526544         0.659223         2.869503
 H        -1.650462        -0.800240         2.541740
 H        -4.459658         0.799499         2.376208
 H        -3.931240         2.459623         2.581587
 H        -5.361937         1.922372         0.423406
 H        -4.010924         2.984879         0.414521
 H        -2.937307        -0.726100         0.655351
