19
Iteration:  3915
 O         0.058471         0.093387        -0.107205
 C        -0.937673         0.550542         0.755291
 C        -1.286648         2.062951         1.120689
 C        -2.374623         1.164956         1.792930
 C        -1.163088         0.138927         2.242032
 C        -3.828876         1.694037         1.956685
 C        -4.288268         1.888977         0.432374
 O        -3.515732         0.799380        -0.295903
 C        -2.495447         0.308926         0.517226
 H        -0.172090         0.273695        -1.048423
 H        -0.781643         2.664688         1.855053
 H        -1.750088         2.721870         0.332999
 H        -0.414238         0.540248         3.020204
 H        -1.397203        -0.848462         2.584876
 H        -4.395457         0.972311         2.588020
 H        -3.808496         2.653843         2.455492
 H        -5.318603         1.872127         0.183315
 H        -4.030312         2.825195         0.035727
 H        -2.598933        -0.724713         0.773453
