19
Iteration:  4953charge 0 multiplicity 1
 O         0.230260         0.084132         0.076810
 C        -0.879182         0.534445         0.680285
 C        -1.271330         2.015166         1.068379
 C        -2.390412         1.098011         1.674499
 C        -1.254934         0.183375         2.177906
 C        -3.795610         1.753454         1.967855
 C        -4.392711         1.729187         0.617797
 O        -3.528465         1.001306        -0.367879
 C        -2.610810         0.256120         0.447638
 H         0.666350         0.737293        -0.526093
 H        -0.608724         2.500066         1.744386
 H        -1.400349         2.892870         0.435085
 H        -0.692681         0.535179         3.070085
 H        -1.504671        -0.924526         2.409732
 H        -4.372714         1.083152         2.577104
 H        -3.807751         2.808593         2.330016
 H        -5.352972         1.186164         0.522909
 H        -4.591822         2.738248         0.159186
 H        -2.900595        -0.809997         0.458941
