19
Iteration:  1234charge 0 multiplicity 1
 O         0.170236        -0.036497         0.118322
 C        -0.988389         0.520072         0.641181
 C        -1.130860         1.965185         1.011626
 C        -2.414904         1.160127         1.754561
 C        -1.249391         0.137750         2.133785
 C        -3.889967         1.600538         2.054861
 C        -4.418776         1.886724         0.549471
 O        -3.383893         1.172182        -0.363859
 C        -2.565523         0.384738         0.460509
 H         0.035481        -0.615426        -0.692025
 H        -0.467827         2.377583         1.712012
 H        -1.588873         2.615195         0.266775
 H        -0.460245         0.650832         2.685756
 H        -1.548135        -0.886125         2.518487
 H        -4.335012         0.796442         2.552006
 H        -4.026926         2.391475         2.785207
 H        -5.326026         1.335942         0.214212
 H        -4.553707         2.894109         0.191634
 H        -2.888139        -0.627907         0.562547
