19
Iteration:  3255charge 0 multiplicity 1
 O        -0.063105        -0.032545        -0.149959
 C        -0.976566         0.551851         0.740006
 C        -1.301493         2.048655         0.910160
 C        -2.355148         1.198542         1.751370
 C        -1.295775         0.268271         2.264118
 C        -3.773294         1.676215         2.094367
 C        -4.363391         1.669766         0.534018
 O        -3.279178         1.034335        -0.312821
 C        -2.466922         0.336416         0.538618
 H         0.873353         0.234294         0.031286
 H        -0.694643         2.729117         1.558911
 H        -1.819284         2.623590         0.150944
 H        -0.563866         0.584343         2.972084
 H        -1.615467        -0.734003         2.436549
 H        -4.245280         0.818335         2.617116
 H        -4.000874         2.623859         2.610785
 H        -5.291545         1.066659         0.333190
 H        -4.424354         2.627639         0.132560
 H        -2.827860        -0.643417         0.700624
