19
Iteration:  4611charge 0 multiplicity 1
 O         0.204306        -0.046904         0.029794
 C        -0.950868         0.552761         0.672888
 C        -1.195929         2.075423         1.028945
 C        -2.352448         1.217278         1.687590
 C        -1.315922         0.207032         2.191300
 C        -3.798280         1.664287         1.970617
 C        -4.566505         1.529319         0.654500
 O        -3.394615         1.092541        -0.398362
 C        -2.547192         0.381495         0.463152
 H         0.864819         0.655810         0.257041
 H        -0.565640         2.649169         1.720727
 H        -1.362654         2.683489         0.203289
 H        -0.389422         0.581709         2.823182
 H        -1.646285        -0.797818         2.478140
 H        -4.404307         1.449646         2.897700
 H        -3.870310         2.737726         2.167057
 H        -5.432216         0.823265         0.566817
 H        -4.977073         2.552142         0.349849
 H        -2.920732        -0.645514         0.535049
