19
Iteration:  2028charge 0 multiplicity 1
 O         0.119199        -0.012360         0.070179
 C        -1.061976         0.481996         0.641295
 C        -1.243521         1.964840         0.869277
 C        -2.381553         1.229489         1.768102
 C        -1.245440         0.232283         2.167241
 C        -3.823655         1.553857         2.037639
 C        -4.287655         1.855742         0.597879
 O        -3.406624         1.066673        -0.331547
 C        -2.570345         0.321482         0.521430
 H         0.290029         0.765072        -0.526936
 H        -0.482911         2.513967         1.480325
 H        -1.637118         2.422378        -0.117295
 H        -0.328968         0.545453         2.758639
 H        -1.557686        -0.785920         2.512792
 H        -4.321299         0.674946         2.545411
 H        -4.003614         2.398273         2.686668
 H        -5.377746         1.596800         0.604149
 H        -4.177518         2.962086         0.395646
 H        -2.911942        -0.685244         0.745834
