19
Iteration:  1991charge 0 multiplicity 1
 O         0.135126        -0.024977        -0.023142
 C        -0.909266         0.546690         0.745623
 C        -1.306876         2.040891         1.079634
 C        -2.417091         1.106463         1.752883
 C        -1.261761         0.175074         2.180876
 C        -3.760590         1.692541         1.988081
 C        -4.388741         1.806639         0.638122
 O        -3.505736         1.057964        -0.342273
 C        -2.415506         0.357390         0.401778
 H        -0.152605        -0.826265        -0.486860
 H        -0.809505         2.787204         1.745283
 H        -1.652668         2.487797         0.155200
 H        -0.470093         0.584199         2.706417
 H        -1.453955        -0.859399         2.331395
 H        -4.383056         1.240720         2.776925
 H        -3.606511         2.814409         2.208627
 H        -5.443025         1.375967         0.506228
 H        -4.386592         2.814485         0.210762
 H        -2.669154        -0.697562         0.388653
