19
Iteration:  2298charge 0 multiplicity 1
 O         0.091797        -0.071412        -0.120023
 C        -0.944473         0.523412         0.658714
 C        -1.237330         2.035306         0.913578
 C        -2.283509         1.282966         1.697800
 C        -1.420904         0.239467         2.292460
 C        -3.736312         1.685569         2.056407
 C        -4.476605         1.524862         0.665821
 O        -3.377605         1.135250        -0.342574
 C        -2.508271         0.432186         0.497617
 H         0.965138        -0.069739         0.268999
 H        -0.678579         2.621181         1.593367
 H        -1.460708         2.637845         0.026449
 H        -0.567880         0.568046         2.917441
 H        -1.838885        -0.847528         2.552682
 H        -4.047383         0.965974         2.845460
 H        -3.939908         2.686644         2.414876
 H        -5.258100         0.846724         0.498495
 H        -4.904922         2.374406         0.214157
 H        -2.883547        -0.528857         0.808112
