19
Iteration:  2946charge 0 multiplicity 1
 O         0.055844         0.010920        -0.059063
 C        -0.934538         0.501593         0.679639
 C        -1.343456         2.008108         0.969023
 C        -2.354147         1.219172         1.757483
 C        -1.148075         0.294611         2.276122
 C        -3.816058         1.544553         2.059866
 C        -4.317985         1.873117         0.579861
 O        -3.429274         1.005381        -0.396014
 C        -2.536623         0.314782         0.527242
 H        -0.165687        -0.599291        -0.818495
 H        -0.585250         2.572148         1.560596
 H        -1.822324         2.509748         0.139467
 H        -0.590587         0.966541         3.039275
 H        -1.268159        -0.657719         2.737372
 H        -4.250910         0.620520         2.525970
 H        -4.180450         2.373448         2.736548
 H        -5.343231         1.695083         0.355635
 H        -4.015446         2.887242         0.296438
 H        -2.866995        -0.741754         0.651417
