19
Iteration:  3141
 O         0.035476         0.037191        -0.213529
 C        -0.991503         0.536812         0.649026
 C        -1.371167         2.039299         1.194914
 C        -2.366160         1.148785         1.824702
 C        -1.193286         0.093298         2.228150
 C        -3.716825         1.921756         1.957659
 C        -4.422971         1.661257         0.492413
 O        -3.411033         0.955947        -0.338574
 C        -2.487094         0.306747         0.561140
 H         0.849127         0.458992         0.170404
 H        -0.675537         2.551532         1.852693
 H        -1.670281         2.689385         0.374551
 H        -0.528055         0.366276         3.044188
 H        -1.542673        -0.803473         2.622938
 H        -4.311814         1.397308         2.698055
 H        -3.429199         2.982851         2.017116
 H        -5.367552         0.987423         0.593104
 H        -4.534904         2.685034        -0.010352
 H        -2.675133        -0.749908         0.701377
