19
Iteration:  3005charge 0 multiplicity 1
 O         0.039348         0.286364        -0.163551
 C        -0.971045         0.494291         0.684390
 C        -1.208025         1.907904         1.007678
 C        -2.364350         1.109059         1.782240
 C        -1.250124         0.147374         2.320563
 C        -3.745630         1.759255         1.956004
 C        -4.227825         1.851230         0.485946
 O        -3.525275         0.874090        -0.270353
 C        -2.623199         0.260714         0.566691
 H         0.865419        -0.098012         0.132787
 H        -0.665333         2.510427         1.730999
 H        -1.462007         2.623771         0.189122
 H        -0.514359         0.584750         2.948407
 H        -1.600175        -0.917892         2.530584
 H        -4.327103         0.986474         2.411565
 H        -3.806180         2.761984         2.338856
 H        -5.350922         1.510309         0.579227
 H        -4.059090         2.812822        -0.065101
 H        -3.106692        -0.742507         0.636538
