19
Iteration:  1422
 O         0.129080         0.038632         0.074394
 C        -0.925057         0.500664         0.695146
 C        -1.241562         1.964387         1.024361
 C        -2.434151         1.066601         1.690832
 C        -1.422525         0.081980         2.164430
 C        -3.753523         1.685809         2.103885
 C        -4.330838         1.842241         0.590172
 O        -3.357143         1.158486        -0.408647
 C        -2.539564         0.298273         0.405691
 H         0.293142         0.482076        -0.789059
 H        -0.625449         2.524851         1.750156
 H        -1.660257         2.686615         0.340596
 H        -0.803662         0.326063         3.090780
 H        -1.844242        -0.945347         2.384999
 H        -4.272882         1.194890         2.868341
 H        -3.644090         2.707525         2.508247
 H        -5.418385         1.481686         0.386153
 H        -4.278288         2.908228         0.325770
 H        -2.802810        -0.845525         0.522327
