19
Iteration:  3246charge 0 multiplicity 1
 O        -0.065345        -0.122275        -0.101344
 C        -0.965247         0.577106         0.650641
 C        -1.306773         2.078665         1.009224
 C        -2.389118         1.257803         1.748613
 C        -1.274095         0.298434         2.255483
 C        -3.765238         1.605142         2.058519
 C        -4.334900         1.664779         0.527049
 O        -3.341451         1.093070        -0.339634
 C        -2.465393         0.346218         0.549825
 H         0.865918         0.197032         0.010183
 H        -0.498564         2.635438         1.537079
 H        -1.722019         2.637552         0.155495
 H        -0.612178         0.874839         2.842368
 H        -1.323881        -0.792420         2.509729
 H        -4.271577         0.769869         2.522980
 H        -3.792349         2.371285         2.802671
 H        -5.102911         0.959981         0.438406
 H        -4.726057         2.514879         0.019822
 H        -2.781422        -0.680639         0.756104
