19
Iteration:  1711charge 0 multiplicity 1
 O         0.168591        -0.008035         0.135604
 C        -0.970732         0.563306         0.674802
 C        -1.371962         1.948860         1.148318
 C        -2.427451         1.010564         1.675201
 C        -1.301775         0.138161         2.151256
 C        -3.641486         1.674398         2.091593
 C        -4.252363         1.850931         0.562087
 O        -3.460280         1.163931        -0.455482
 C        -2.571303         0.363849         0.384446
 H        -0.032125        -0.044445        -0.850410
 H        -0.749000         2.450891         1.930053
 H        -1.762489         2.610180         0.409827
 H        -0.737254         0.366143         3.066805
 H        -1.612438        -1.002474         2.056309
 H        -4.331110         1.045397         2.656201
 H        -3.552044         2.670354         2.434606
 H        -5.253747         1.392515         0.464456
 H        -4.341996         2.969729         0.316788
 H        -2.987275        -0.595029         0.518380
