19
Iteration:   194
 O         0.174336        -0.037745        -0.017012
 C        -0.969293         0.561902         0.759806
 C        -1.294831         2.069058         1.025757
 C        -2.432955         1.087789         1.746991
 C        -1.203025         0.250132         2.242140
 C        -3.872382         1.684365         1.959820
 C        -4.264119         1.911727         0.490132
 O        -3.453956         0.996283        -0.333886
 C        -2.514800         0.259004         0.515595
 H        -0.291680        -0.593592        -0.631471
 H        -0.644165         2.522789         1.793208
 H        -1.660628         2.605818         0.169333
 H        -0.506617         0.722623         2.990346
 H        -1.377719        -0.778130         2.602945
 H        -4.592970         0.908360         2.380997
 H        -3.929936         2.521785         2.627623
 H        -5.310001         1.614399         0.367088
 H        -4.133535         2.963042         0.059572
 H        -2.933042        -0.754994         0.509717
