19
Iteration:  3026charge 0 multiplicity 1
 O         0.144958         0.101730        -0.202212
 C        -0.961295         0.543781         0.681735
 C        -1.296555         2.002375         1.064683
 C        -2.422346         1.171356         1.758032
 C        -1.306282         0.220474         2.241114
 C        -3.843914         1.721381         2.057495
 C        -4.324959         1.899698         0.570010
 O        -3.500656         0.878407        -0.297031
 C        -2.457584         0.211131         0.517631
 H         1.010217        -0.122902         0.222324
 H        -0.478240         2.511733         1.619275
 H        -1.500129         2.591488         0.130620
 H        -0.449604         0.499681         2.860139
 H        -1.633925        -0.872088         2.452189
 H        -4.437924         1.039087         2.666994
 H        -3.646975         2.717688         2.494694
 H        -5.371151         1.599836         0.218449
 H        -4.033593         2.875797         0.133747
 H        -2.898125        -0.810218         0.632769
