19
Iteration:  3862charge 0 multiplicity 1
 O         0.107443         0.204883        -0.061345
 C        -0.971444         0.582709         0.712195
 C        -1.353188         1.971286         0.875076
 C        -2.393840         1.120177         1.822696
 C        -1.177756         0.140721         2.302704
 C        -3.789460         1.641905         2.004363
 C        -4.224501         1.843980         0.547300
 O        -3.511307         1.012261        -0.340501
 C        -2.560322         0.203910         0.503597
 H         0.458011        -0.673226         0.235611
 H        -0.634568         2.584946         1.383187
 H        -1.847590         2.377464        -0.069596
 H        -0.419347         0.594469         3.068960
 H        -1.490042        -0.866421         2.451882
 H        -4.460979         1.006687         2.643045
 H        -3.817805         2.647308         2.410456
 H        -5.327020         1.726112         0.512405
 H        -4.072187         2.931082         0.163301
 H        -2.760543        -0.896584         0.548853
