19
Iteration:  2652
 O        -0.039824         0.022145        -0.095291
 C        -1.013485         0.551585         0.695560
 C        -1.304708         2.069770         0.891391
 C        -2.330913         1.233890         1.762212
 C        -1.268037         0.279213         2.290997
 C        -3.775398         1.594946         2.079770
 C        -4.246471         1.756627         0.573237
 O        -3.408958         0.961905        -0.327063
 C        -2.491228         0.208723         0.510712
 H         0.755588         0.566168        -0.107514
 H        -0.734620         2.817745         1.378182
 H        -1.770818         2.419084        -0.032928
 H        -0.394612         0.684384         2.932498
 H        -1.678915        -0.700703         2.380266
 H        -4.203077         0.833274         2.703094
 H        -3.856096         2.556135         2.631798
 H        -5.315570         1.710163         0.202759
 H        -4.069781         2.840043         0.392093
 H        -2.871030        -0.859337         0.765055
