19
Iteration:  4287
 O         0.117821         0.050918        -0.046264
 C        -1.035745         0.521217         0.668966
 C        -1.325569         2.117843         0.990432
 C        -2.421143         1.178090         1.768920
 C        -1.366437         0.158844         2.185811
 C        -3.720831         1.785311         2.095779
 C        -4.324124         1.531539         0.588229
 O        -3.296348         1.123573        -0.383133
 C        -2.491212         0.225878         0.392520
 H         0.557578        -0.331280         0.721658
 H        -0.611365         2.779991         1.623593
 H        -1.785681         2.786969         0.339601
 H        -0.746994         0.576628         3.053526
 H        -1.705895        -0.880779         2.515670
 H        -4.349219         1.343316         2.886702
 H        -3.676943         2.902286         2.169425
 H        -5.300094         1.020943         0.786391
 H        -4.744398         2.472273         0.129375
 H        -3.029293        -0.728710         0.480297
