19
Iteration:  2436charge 0 multiplicity 1
 O        -0.019414        -0.003822        -0.142382
 C        -0.951516         0.603220         0.686112
 C        -1.439160         2.077297         0.997875
 C        -2.383535         1.154619         1.760855
 C        -1.189355         0.253903         2.243956
 C        -3.782504         1.675529         2.071081
 C        -4.072639         1.837872         0.571565
 O        -3.533288         0.821103        -0.344166
 C        -2.515108         0.290712         0.527948
 H         0.796437         0.460618         0.182584
 H        -0.839117         2.791882         1.598920
 H        -1.674696         2.560925         0.004779
 H        -0.460549         0.590475         2.938986
 H        -1.504775        -0.728786         2.401653
 H        -4.319294         0.861982         2.554983
 H        -3.947483         2.631388         2.651232
 H        -5.167922         1.916777         0.411751
 H        -3.800444         2.894756         0.359861
 H        -2.720500        -0.829977         0.498020
