19
Iteration:   310charge 0 multiplicity 1
 O         0.146095        -0.025109        -0.021339
 C        -0.948795         0.488535         0.680862
 C        -1.166030         2.049596         1.010856
 C        -2.396445         1.247118         1.798155
 C        -1.319351         0.263982         2.267740
 C        -3.846098         1.642920         2.014663
 C        -4.374952         1.758374         0.449175
 O        -3.385109         1.073533        -0.394791
 C        -2.560333         0.322169         0.542026
 H        -0.105702        -0.827689        -0.434827
 H        -0.462261         2.476139         1.785974
 H        -1.509383         2.628963         0.097425
 H        -0.592808         0.588128         3.085986
 H        -1.661090        -0.752066         2.574625
 H        -4.332572         0.798058         2.565364
 H        -4.030903         2.554941         2.717310
 H        -5.439990         1.379819         0.312182
 H        -4.326324         2.810647         0.195402
 H        -2.841710        -0.740564         0.728458
