19
Iteration:  4784
 O         0.274906         0.210132         0.027079
 C        -0.926508         0.604626         0.696552
 C        -1.463910         2.038433         0.963096
 C        -2.481446         1.027955         1.718362
 C        -1.297168         0.164751         2.177826
 C        -3.762419         1.674065         2.052879
 C        -4.203739         1.893967         0.504609
 O        -3.483579         0.937601        -0.341906
 C        -2.626548         0.168466         0.540140
 H         0.542457        -0.686950         0.326552
 H        -0.767050         2.644151         1.633200
 H        -1.751420         2.625284         0.106607
 H        -0.557439         0.738047         2.856395
 H        -1.499436        -0.863869         2.345186
 H        -4.388882         0.865379         2.563004
 H        -3.593929         2.640952         2.489956
 H        -5.263530         1.757507         0.223562
 H        -3.805867         2.929643         0.294301
 H        -2.914998        -0.921772         0.492074
