19
Iteration:   381
 O         0.129836         0.098393        -0.085905
 C        -0.957374         0.463622         0.737913
 C        -1.349513         1.944840         1.033376
 C        -2.435788         1.108701         1.781423
 C        -1.326071         0.133312         2.297593
 C        -3.748917         1.908755         1.963897
 C        -4.357239         1.665039         0.550079
 O        -3.293820         1.204290        -0.396710
 C        -2.508300         0.224958         0.504635
 H        -0.046715        -0.824206         0.011416
 H        -0.784708         2.447772         1.866654
 H        -1.701598         2.527456         0.179294
 H        -0.504034         0.432721         2.985258
 H        -1.604001        -0.968196         2.510426
 H        -4.457088         1.535071         2.706041
 H        -3.750041         2.967789         2.073410
 H        -5.081568         0.888089         0.576048
 H        -4.872469         2.560470         0.085959
 H        -2.843070        -0.832080         0.432331
