19
Iteration:  4971
 O         0.208266         0.083321         0.072522
 C        -0.995617         0.566984         0.759791
 C        -1.378137         2.007810         0.973151
 C        -2.386683         1.129525         1.786322
 C        -1.275561         0.089833         2.186252
 C        -3.742453         1.670893         2.065926
 C        -4.384824         1.742672         0.429706
 O        -3.435512         1.034960        -0.361808
 C        -2.492663         0.333724         0.512644
 H         0.219970         0.586338        -0.787278
 H        -0.740944         2.810615         1.476049
 H        -1.889802         2.510365         0.038846
 H        -0.464191         0.531196         2.740984
 H        -1.538050        -0.945138         2.186500
 H        -4.358825         0.990017         2.706251
 H        -3.590583         2.670601         2.533959
 H        -5.351849         1.315965         0.605709
 H        -4.407429         2.814528         0.080056
 H        -2.844312        -0.721322         0.625474
