19
Iteration:  4309charge 0 multiplicity 1
 O         0.134353         0.077533        -0.021435
 C        -0.926619         0.546806         0.749364
 C        -1.191510         1.903504         1.025731
 C        -2.397170         1.207235         1.681183
 C        -1.344740         0.221579         2.212532
 C        -3.741305         1.738597         1.951475
 C        -4.438370         1.569628         0.605455
 O        -3.447188         1.113077        -0.368654
 C        -2.497088         0.432481         0.437425
 H         0.575520        -0.651267         0.488925
 H        -0.591521         2.612185         1.692616
 H        -1.457368         2.464680         0.182286
 H        -0.594671         0.519189         3.007614
 H        -1.751768        -0.863350         2.374452
 H        -4.220778         1.062586         2.671694
 H        -3.763843         2.798489         2.342788
 H        -5.208465         0.735502         0.717573
 H        -5.129231         2.400070         0.333463
 H        -2.884930        -0.597131         0.598482
