19
Iteration:  3423charge 0 multiplicity 1
 O         0.053089         0.069470        -0.086471
 C        -0.940653         0.528742         0.734741
 C        -1.062731         2.006908         1.110402
 C        -2.391051         1.290663         1.742427
 C        -1.233446         0.154427         2.274660
 C        -3.809403         1.816199         1.957610
 C        -4.505865         1.455048         0.614151
 O        -3.393258         1.042844        -0.367055
 C        -2.540718         0.428752         0.447639
 H        -0.304368        -0.166254        -0.968308
 H        -0.232708         2.322690         1.812991
 H        -1.099209         2.696103         0.200201
 H        -0.639734         0.685503         3.096234
 H        -1.748395        -0.839446         2.422382
 H        -4.310167         1.192264         2.739713
 H        -3.785407         2.886832         2.263796
 H        -5.112335         0.527789         0.595149
 H        -5.137241         2.333075         0.137696
 H        -2.854391        -0.640581         0.513737
