19
Iteration:   349
 O         0.072757        -0.006994         0.080335
 C        -0.994676         0.555351         0.726763
 C        -1.201729         2.016427         1.017268
 C        -2.349152         1.260598         1.712943
 C        -1.351116         0.196473         2.230510
 C        -3.726098         1.689025         2.031511
 C        -4.400433         1.635092         0.551872
 O        -3.364203         1.138045        -0.444775
 C        -2.499714         0.315112         0.459110
 H        -0.320420        -0.834636        -0.362416
 H        -0.588610         2.551434         1.757787
 H        -1.389356         2.770544         0.269696
 H        -0.591585         0.546050         2.932303
 H        -1.775758        -0.825185         2.398015
 H        -4.197283         0.968379         2.690867
 H        -3.828124         2.696685         2.403690
 H        -5.240165         0.984269         0.431761
 H        -4.655654         2.675402         0.180138
 H        -2.945052        -0.681505         0.504770
