19
Iteration:  2573
 O        -0.053560         0.020695        -0.119638
 C        -1.047248         0.462877         0.652136
 C        -1.243608         2.083656         0.994856
 C        -2.343550         1.249395         1.775682
 C        -1.345070         0.207785         2.262218
 C        -3.625998         1.891996         2.084677
 C        -4.405083         1.421829         0.606792
 O        -3.318354         1.092123        -0.372969
 C        -2.516783         0.299207         0.462838
 H         0.617010         0.691036        -0.254270
 H        -0.495184         2.326258         1.775407
 H        -1.391330         2.941242         0.303142
 H        -0.609039         0.491505         3.077881
 H        -1.778107        -0.781978         2.571507
 H        -4.195664         1.516364         2.929971
 H        -3.540088         2.921210         2.327171
 H        -4.949052         0.398429         0.621954
 H        -5.051715         2.074083         0.023886
 H        -2.808850        -0.825617         0.562903
