19
Iteration:   304
 O         0.108698         0.009722        -0.011868
 C        -1.003353         0.461944         0.723449
 C        -1.232135         2.078747         1.028716
 C        -2.403635         1.213368         1.723927
 C        -1.303539         0.261083         2.294103
 C        -3.814207         1.658313         2.002303
 C        -4.303336         1.769659         0.526036
 O        -3.371226         1.053759        -0.391402
 C        -2.534606         0.305489         0.495327
 H        -0.175279        -0.854750        -0.395982
 H        -0.443264         2.592667         1.603499
 H        -1.410451         2.635412         0.128023
 H        -0.540699         0.511613         3.046301
 H        -1.748683        -0.744690         2.488078
 H        -4.276261         0.821112         2.547909
 H        -4.125228         2.554120         2.467475
 H        -5.288262         1.375797         0.374268
 H        -4.255554         2.809191         0.130562
 H        -2.870675        -0.736015         0.671582
