19
Iteration:  1224
 O         0.119375        -0.019720         0.041616
 C        -1.010302         0.484685         0.655207
 C        -1.294780         2.043381         1.075173
 C        -2.328678         1.171064         1.683588
 C        -1.269184         0.175287         2.197811
 C        -3.857030         1.550866         2.025575
 C        -4.392376         1.858008         0.559356
 O        -3.315652         1.191418        -0.383140
 C        -2.534497         0.319499         0.494056
 H        -0.139797        -0.827738        -0.468121
 H        -0.467591         2.367185         1.654885
 H        -1.464144         2.623375         0.209817
 H        -0.533430         0.527189         2.901232
 H        -1.687049        -0.823105         2.484546
 H        -4.308139         0.746766         2.593770
 H        -4.000491         2.536408         2.520021
 H        -5.436974         1.641337         0.442040
 H        -4.153034         2.855064         0.390483
 H        -2.898647        -0.662275         0.581428
