19
Iteration:  2009charge 0 multiplicity 1
 O         0.184729        -0.031075         0.045081
 C        -0.923794         0.551162         0.656432
 C        -1.316656         2.041110         0.962996
 C        -2.400491         1.141731         1.660483
 C        -1.278497         0.245969         2.231611
 C        -3.704421         1.652880         2.108732
 C        -4.307749         1.803303         0.601658
 O        -3.476051         1.079684        -0.361240
 C        -2.617964         0.278694         0.427584
 H        -0.086582        -0.243960        -0.872108
 H        -0.560568         2.361978         1.661316
 H        -1.642577         2.773708         0.263306
 H        -0.772704         0.771296         3.153177
 H        -1.653502        -0.771174         2.520839
 H        -4.257866         0.817864         2.520634
 H        -3.728931         2.467227         2.790973
 H        -5.272505         1.382138         0.427930
 H        -4.300679         2.858400         0.325460
 H        -2.940477        -0.814720         0.607723
