19
Iteration:  2838charge 0 multiplicity 1
 O         0.044973         0.102730        -0.220952
 C        -0.987104         0.521632         0.677107
 C        -1.211469         2.008469         1.039522
 C        -2.366754         1.255503         1.792872
 C        -1.298015         0.168036         2.326802
 C        -3.765712         1.864657         2.045442
 C        -4.423696         1.439135         0.601167
 O        -3.306379         1.056365        -0.411613
 C        -2.553048         0.378680         0.524264
 H         0.187582        -0.849503        -0.025947
 H        -0.416379         2.482273         1.725512
 H        -1.497871         2.685725         0.218812
 H        -0.497226         0.344974         3.082171
 H        -1.606829        -0.824840         2.400067
 H        -4.151468         1.545011         2.968768
 H        -3.779612         2.970226         2.047628
 H        -5.315707         0.794428         0.755140
 H        -4.948655         2.219068         0.110180
 H        -2.995074        -0.580157         0.877196
