19
Iteration:   973charge 0 multiplicity 1
 O         0.157718         0.068076         0.019192
 C        -0.926185         0.500944         0.663024
 C        -1.243142         1.922490         1.123907
 C        -2.397794         1.154849         1.693953
 C        -1.445339         0.188953         2.290010
 C        -3.687604         1.802086         2.029899
 C        -4.356023         1.573225         0.585469
 O        -3.417388         1.187867        -0.413356
 C        -2.501614         0.349995         0.366223
 H         0.121619        -0.562912        -0.666223
 H        -0.499841         2.390518         1.701596
 H        -1.523168         2.427662         0.138042
 H        -0.849283         0.595599         3.103799
 H        -1.949660        -0.657662         2.587503
 H        -4.379416         1.226689         2.655380
 H        -3.715234         2.859690         2.389519
 H        -5.120043         0.800412         0.782677
 H        -4.737077         2.519787         0.235386
 H        -2.969835        -0.639125         0.482555
