19
Iteration:   794
 O         0.016336         0.028546        -0.056581
 C        -1.037109         0.577280         0.688638
 C        -1.262593         2.013358         0.966223
 C        -2.386091         1.188515         1.882590
 C        -1.164315         0.217861         2.243469
 C        -3.929829         1.665995         1.946275
 C        -4.285024         1.800633         0.419754
 O        -3.334456         1.010741        -0.342257
 C        -2.536192         0.260376         0.579725
 H         0.750178        -0.105278         0.616457
 H        -0.393066         2.316681         1.545326
 H        -1.504726         2.585008         0.062081
 H        -0.317843         0.536788         2.776898
 H        -1.506874        -0.827619         2.405009
 H        -4.420796         0.739367         2.358035
 H        -4.096224         2.609352         2.509160
 H        -5.324650         1.490063         0.337765
 H        -4.233446         2.883947         0.258577
 H        -3.128889        -0.586860         0.922688
