19
Iteration:  3114
 O        -0.095215         0.029635        -0.124910
 C        -1.028412         0.553631         0.688771
 C        -1.222590         2.064941         1.021753
 C        -2.372244         1.204545         1.744814
 C        -1.240192         0.183591         2.276042
 C        -3.799549         1.749005         1.983968
 C        -4.287150         1.668049         0.557985
 O        -3.348913         1.005525        -0.339574
 C        -2.503416         0.272440         0.513893
 H         0.679680         0.645817        -0.096415
 H        -0.345034         2.446675         1.600148
 H        -1.368391         2.666617         0.100433
 H        -0.689950         0.585075         3.170861
 H        -1.525233        -0.947415         2.579116
 H        -4.230099         0.933157         2.625522
 H        -3.928575         2.707609         2.589159
 H        -5.289698         1.123276         0.606452
 H        -4.457221         2.712346         0.234679
 H        -2.780475        -0.834742         0.702512
