19
Iteration:  2269
 O        -0.090329         0.059721        -0.148227
 C        -0.981665         0.538302         0.701965
 C        -1.249558         1.990834         1.058203
 C        -2.382866         1.174232         1.762509
 C        -1.228559         0.207719         2.235739
 C        -3.708210         1.856805         2.022890
 C        -4.433306         1.553752         0.495859
 O        -3.353897         1.062157        -0.315600
 C        -2.476734         0.307488         0.511194
 H         0.818825        -0.043852         0.227014
 H        -0.629738         2.411378         1.927806
 H        -1.380471         2.684049         0.230898
 H        -0.407919         0.553919         2.855769
 H        -1.400125        -0.775754         2.572663
 H        -4.351357         1.465233         2.889550
 H        -3.554361         2.919991         2.265572
 H        -5.263600         0.707733         0.568974
 H        -4.945640         2.350381        -0.151796
 H        -2.731536        -0.811953         0.702084
