19
Iteration:   127
 O        -0.030821        -0.025376        -0.114123
 C        -0.923676         0.488861         0.765585
 C        -1.198531         2.090734         1.098935
 C        -2.346114         1.176630         1.769048
 C        -1.346928         0.188563         2.334427
 C        -3.734351         1.788091         1.971902
 C        -4.415863         1.620045         0.489301
 O        -3.447066         1.037011        -0.411671
 C        -2.434485         0.379327         0.432105
 H         0.889290         0.105820         0.278366
 H        -0.464279         2.604246         1.794769
 H        -1.505202         2.565902         0.127057
 H        -0.494774         0.473362         3.076311
 H        -1.711347        -0.796539         2.840186
 H        -4.425345         1.315332         2.760748
 H        -3.623199         2.841919         2.257683
 H        -5.322352         0.970593         0.526001
 H        -4.663572         2.613815        -0.023332
 H        -2.717121        -0.712148         0.565161
