19
Iteration:    77
 O         0.112040         0.036972        -0.005752
 C        -0.969800         0.490320         0.772919
 C        -1.284327         1.970718         0.997584
 C        -2.392009         1.228341         1.820918
 C        -1.327769         0.179533         2.310366
 C        -3.720708         1.865372         1.896403
 C        -4.385101         1.533273         0.608488
 O        -3.366653         1.149223        -0.408391
 C        -2.471965         0.340656         0.428115
 H        -0.240520        -0.624864        -0.638891
 H        -0.588423         2.629823         1.454343
 H        -1.695881         2.344164         0.099763
 H        -0.576677         0.395809         3.024932
 H        -1.650566        -0.789761         2.554881
 H        -4.387082         1.419125         2.630889
 H        -3.778788         2.930599         2.116927
 H        -5.071618         0.682592         0.767635
 H        -4.944372         2.402314         0.224098
 H        -2.840041        -0.700317         0.512009
