19
Iteration:  3659
 O         0.099599        -0.113702         0.060723
 C        -1.058498         0.531358         0.704928
 C        -1.310596         2.103285         0.943456
 C        -2.426759         1.157598         1.786959
 C        -1.181695         0.344567         2.121433
 C        -3.847926         1.585517         2.063995
 C        -4.341863         1.593454         0.638275
 O        -3.276419         1.190094        -0.379295
 C        -2.509818         0.396560         0.466859
 H        -0.078008        -0.319044        -0.897351
 H        -0.728173         2.720110         1.638249
 H        -1.747947         2.703957         0.100703
 H        -0.300956         0.729845         2.634665
 H        -1.491481        -0.790764         2.342704
 H        -4.292204         0.723363         2.568891
 H        -3.969721         2.503361         2.672300
 H        -5.232049         0.977856         0.426291
 H        -4.705528         2.514107         0.303448
 H        -2.967525        -0.571150         0.737161
