19
Iteration:  2074
 O        -0.076452         0.089881        -0.197351
 C        -1.005818         0.564433         0.644866
 C        -1.378450         2.058045         1.127646
 C        -2.404551         1.118649         1.742156
 C        -1.289295         0.291675         2.291392
 C        -3.733227         1.710644         2.045299
 C        -4.147266         1.813893         0.503246
 O        -3.416958         0.870176        -0.315447
 C        -2.463726         0.225368         0.470778
 H         0.568034        -0.508121         0.273656
 H        -0.585711         2.276075         1.875956
 H        -1.727371         2.867894         0.485124
 H        -0.507888         0.800027         3.046964
 H        -1.488508        -0.778754         2.595683
 H        -4.314699         1.118297         2.761897
 H        -3.668450         2.693490         2.445361
 H        -5.188114         1.707289         0.265979
 H        -3.824360         2.861191         0.215823
 H        -2.787679        -0.837639         0.458238
