19
Iteration:  2093
 O        -0.011868         0.211643        -0.186585
 C        -1.029107         0.564188         0.782851
 C        -1.274210         2.047599         1.088394
 C        -2.389254         1.167673         1.850448
 C        -1.188034         0.125101         2.235176
 C        -3.755134         1.749179         1.995433
 C        -4.193190         1.837968         0.460484
 O        -3.458045         0.832703        -0.359156
 C        -2.540654         0.221360         0.572105
 H         0.023622        -0.774875        -0.218238
 H        -0.677252         2.696309         1.789836
 H        -1.575376         2.542915         0.101446
 H        -0.449075         0.476428         2.920901
 H        -1.519126        -0.867662         2.429564
 H        -4.518027         1.130408         2.580188
 H        -3.783247         2.756398         2.427148
 H        -5.293906         1.716913         0.224545
 H        -3.941352         2.815144         0.016561
 H        -2.792549        -0.800350         0.774931
