19
Iteration:  3685
 O         0.121872        -0.086913         0.011581
 C        -0.978271         0.539685         0.733052
 C        -1.270251         2.067632         0.898942
 C        -2.344448         1.193334         1.716216
 C        -1.319455         0.267701         2.297715
 C        -3.726397         1.606310         2.041562
 C        -4.462186         1.591203         0.573845
 O        -3.412398         1.198902        -0.302645
 C        -2.459963         0.346554         0.404209
 H         0.405284         0.449590        -0.778946
 H        -0.502813         2.669454         1.472418
 H        -1.653591         2.639056         0.076345
 H        -0.630781         0.554933         3.117793
 H        -1.726406        -0.759275         2.353113
 H        -4.080930         0.842954         2.773758
 H        -3.778975         2.603089         2.513805
 H        -5.322692         0.916566         0.471296
 H        -4.925380         2.583776         0.203115
 H        -2.876901        -0.682909         0.607025
