19
Iteration:  1480charge 0 multiplicity 1
 O        -0.062232         0.170607        -0.200501
 C        -0.987008         0.503602         0.723052
 C        -1.243067         1.990045         1.143235
 C        -2.466969         1.084029         1.861007
 C        -1.407553         0.097101         2.263883
 C        -3.848235         1.606840         2.008719
 C        -4.011407         1.923540         0.495666
 O        -3.324856         1.029862        -0.348781
 C        -2.490784         0.335480         0.475541
 H         0.043213        -0.795448        -0.298093
 H        -0.565710         2.390454         1.891417
 H        -1.562222         2.754724         0.358369
 H        -0.667771         0.506966         2.960072
 H        -1.844539        -0.822872         2.598455
 H        -4.544120         0.763572         2.356296
 H        -3.951723         2.572247         2.532370
 H        -5.112704         1.656479         0.330428
 H        -3.864197         3.021218         0.230990
 H        -2.753131        -0.779215         0.307092
