19
Iteration:  3050
 O        -0.013240        -0.058955        -0.023524
 C        -1.030045         0.624820         0.689352
 C        -1.392500         2.105482         1.034826
 C        -2.370683         1.153740         1.739014
 C        -1.182123         0.234289         2.151734
 C        -3.706695         1.595443         2.030869
 C        -4.214267         1.795224         0.574025
 O        -3.497031         1.003375        -0.354393
 C        -2.481401         0.306586         0.506512
 H         0.837637         0.116775         0.418419
 H        -0.574646         2.653839         1.471584
 H        -1.810135         2.616624         0.167782
 H        -0.680867         0.749221         2.901547
 H        -1.310773        -0.852687         2.363964
 H        -4.228947         0.740311         2.395650
 H        -3.764340         2.478488         2.597331
 H        -5.287763         1.417087         0.369554
 H        -4.099464         2.841746         0.203960
 H        -2.869477        -0.705191         0.574190
