19
Iteration:  2766
 O         0.076617        -0.072682         0.029656
 C        -1.018947         0.564603         0.687670
 C        -1.332398         2.063872         0.852768
 C        -2.392974         1.252030         1.743044
 C        -1.140330         0.280210         2.189281
 C        -3.728436         1.634099         1.997490
 C        -4.384321         1.668886         0.619236
 O        -3.419163         1.062217        -0.272059
 C        -2.608306         0.254945         0.466363
 H         0.683084         0.588016        -0.307805
 H        -0.569561         2.413804         1.572215
 H        -1.467272         2.807904         0.042542
 H        -0.384130         0.709807         2.818155
 H        -1.308094        -0.825148         2.583908
 H        -4.222655         0.916895         2.752959
 H        -3.784238         2.625237         2.484298
 H        -5.333315         1.324213         0.399111
 H        -4.514123         2.755142         0.392037
 H        -2.834002        -0.820642         0.606935
