19
Iteration:   976
 O         0.152148         0.092510         0.021186
 C        -0.920597         0.492071         0.635959
 C        -1.241751         1.928584         1.123347
 C        -2.375325         1.147183         1.696128
 C        -1.437520         0.177822         2.325149
 C        -3.710160         1.828876         2.032181
 C        -4.327631         1.569306         0.612742
 O        -3.418698         1.172607        -0.427273
 C        -2.510005         0.337802         0.354612
 H         0.045118        -0.610824        -0.654524
 H        -0.470400         2.409791         1.761867
 H        -1.532044         2.437534         0.143491
 H        -0.887818         0.623875         3.147268
 H        -1.990770        -0.798747         2.562348
 H        -4.410853         1.251219         2.632524
 H        -3.740948         2.855408         2.284793
 H        -5.094531         0.775941         0.779835
 H        -4.722465         2.568340         0.230050
 H        -3.121627        -0.567630         0.382544
