19
Iteration:   339charge 0 multiplicity 1
 O         0.120360        -0.056209         0.042661
 C        -0.952417         0.496263         0.746036
 C        -1.112309         2.048728         1.053411
 C        -2.350515         1.323248         1.759256
 C        -1.239105         0.193260         2.221594
 C        -3.904557         1.694479         1.917762
 C        -4.441668         1.646549         0.542605
 O        -3.409071         1.144589        -0.379802
 C        -2.548173         0.348782         0.452126
 H         0.026215        -0.847346        -0.514696
 H        -0.451007         2.469193         1.769807
 H        -1.343592         2.604649         0.146602
 H        -0.525611         0.485573         2.943280
 H        -1.667567        -0.758990         2.491709
 H        -4.285406         0.857628         2.458334
 H        -4.066085         2.555582         2.541663
 H        -5.391614         1.134689         0.543503
 H        -4.654148         2.723004         0.269005
 H        -2.908877        -0.687003         0.567206
