19
Iteration:  2555charge 0 multiplicity 1
 O        -0.048780         0.035498        -0.235018
 C        -0.988248         0.523259         0.719156
 C        -1.150982         1.944745         1.070776
 C        -2.395376         1.231449         1.754615
 C        -1.343157         0.205378         2.288788
 C        -3.768659         1.852926         1.902321
 C        -4.386078         1.410271         0.656089
 O        -3.316245         1.136646        -0.300730
 C        -2.481371         0.342621         0.545241
 H         0.682774         0.656050        -0.312569
 H        -0.390025         2.424233         1.611237
 H        -1.506083         2.451211         0.168390
 H        -0.480872         0.591353         2.959023
 H        -1.653531        -0.820804         2.471995
 H        -4.332710         1.640427         2.810512
 H        -3.739622         3.001654         1.891193
 H        -5.021697         0.585659         0.823957
 H        -5.099567         2.142233         0.270019
 H        -2.930539        -0.596942         0.765345
