19
Iteration:  1269
 O         0.122627        -0.053800         0.074804
 C        -0.935556         0.485357         0.695446
 C        -1.233314         1.981896         1.073002
 C        -2.384502         1.160579         1.650752
 C        -1.441350         0.119790         2.177938
 C        -3.684811         1.732960         2.084336
 C        -4.448944         1.791567         0.593371
 O        -3.366886         1.110410        -0.382129
 C        -2.507000         0.368783         0.356828
 H         0.446454         0.619449        -0.617147
 H        -0.754534         2.669960         1.833326
 H        -1.642868         2.609349         0.360239
 H        -0.698090         0.430238         2.878961
 H        -1.798962        -0.944124         2.429491
 H        -4.253634         0.954865         2.665212
 H        -3.441666         2.737534         2.540820
 H        -5.340090         1.096045         0.505461
 H        -4.605898         2.787824         0.357936
 H        -2.850495        -0.604627         0.517109
