19
Iteration:   957
 O         0.203760        -0.000468         0.053825
 C        -0.980910         0.482166         0.740076
 C        -1.185424         2.041094         0.994325
 C        -2.374345         1.204894         1.697276
 C        -1.362013         0.149873         2.215545
 C        -3.806645         1.716026         1.999222
 C        -4.486119         1.641855         0.562442
 O        -3.342491         1.189230        -0.352239
 C        -2.533185         0.368478         0.469327
 H        -0.298860        -0.514312        -0.556329
 H        -0.561017         2.418476         1.870788
 H        -1.435059         2.730582         0.222398
 H        -0.540293         0.522176         2.862922
 H        -1.638821        -0.999687         2.282518
 H        -4.204984         1.063148         2.799719
 H        -3.664564         2.762500         2.313285
 H        -5.205443         0.821082         0.482529
 H        -4.908323         2.572711         0.104530
 H        -3.047346        -0.682353         0.393035
