19
Iteration:  3521charge 0 multiplicity 1
 O         0.127879        -0.045734        -0.006036
 C        -0.959683         0.540450         0.740030
 C        -1.186788         1.996606         0.879002
 C        -2.405210         1.324072         1.708190
 C        -1.221713         0.325950         2.229408
 C        -3.812141         1.506591         2.059779
 C        -4.344614         1.728150         0.603223
 O        -3.461043         1.027998        -0.301761
 C        -2.590687         0.316790         0.468041
 H         0.166565         0.625805        -0.704269
 H        -0.498928         2.569261         1.619347
 H        -1.382418         2.588084        -0.057972
 H        -0.490307         0.766075         2.935901
 H        -1.651088        -0.673425         2.369568
 H        -4.153236         0.593324         2.591923
 H        -4.057431         2.391706         2.705593
 H        -5.420830         1.459737         0.516558
 H        -4.493289         2.742397         0.077652
 H        -2.913653        -0.690219         0.757300
