19
Iteration:  3987
 O         0.129125         0.021944         0.131621
 C        -0.936019         0.569483         0.726395
 C        -1.291054         2.019258         0.864425
 C        -2.399593         1.074848         1.703318
 C        -1.184568         0.196469         2.221583
 C        -3.725325         1.669637         2.044615
 C        -4.399499         1.737481         0.588935
 O        -3.433251         1.120784        -0.339128
 C        -2.625246         0.287956         0.444581
 H         0.370953         0.338580        -0.749201
 H        -0.525626         2.620405         1.430658
 H        -1.641962         2.445038        -0.059032
 H        -0.518418         0.584622         2.941551
 H        -1.338987        -0.837671         2.584691
 H        -4.357846         1.004225         2.641918
 H        -3.662706         2.666248         2.535230
 H        -5.392088         1.173930         0.471890
 H        -4.762391         2.795026         0.219343
 H        -3.044261        -0.778451         0.320571
