19
Iteration:  2958charge 0 multiplicity 1
 O         0.079979         0.040948        -0.132089
 C        -0.984644         0.563387         0.753587
 C        -1.365712         2.065549         0.979879
 C        -2.410344         1.090768         1.769677
 C        -1.146207         0.291354         2.262971
 C        -3.817458         1.589878         1.969238
 C        -4.277480         1.891489         0.535310
 O        -3.438754         1.010677        -0.287214
 C        -2.479866         0.209488         0.542104
 H        -0.391814        -0.793035        -0.304210
 H        -0.687095         2.700690         1.600457
 H        -1.664176         2.653268         0.107704
 H        -0.334496         0.802061         2.866139
 H        -1.419547        -0.740181         2.479892
 H        -4.468690         0.811459         2.391013
 H        -3.702023         2.525520         2.578950
 H        -5.339459         1.645759         0.457658
 H        -4.082787         2.943734         0.284073
 H        -2.864199        -0.840275         0.629284
