19
Iteration:     8
 O         0.003666        -0.062216        -0.059610
 C        -0.979039         0.534338         0.779118
 C        -1.304060         2.073475         0.986261
 C        -2.364057         1.212016         1.791301
 C        -1.211403         0.251332         2.232787
 C        -3.794064         1.750535         1.983320
 C        -4.330461         1.689024         0.442464
 O        -3.386534         0.985328        -0.347984
 C        -2.584966         0.325011         0.562826
 H         0.833965         0.353189         0.076287
 H        -0.593199         2.769502         1.415020
 H        -1.498694         2.368481        -0.053548
 H        -0.387329         0.524716         2.915335
 H        -1.428055        -0.769069         2.466357
 H        -4.264273         0.943375         2.641787
 H        -3.803002         2.632609         2.613723
 H        -5.377034         1.335882         0.473394
 H        -4.277642         2.753318        -0.018041
 H        -2.747783        -0.757627         0.788137
