19
Iteration:  2008charge 0 multiplicity 1
 O         0.187300        -0.033758         0.042420
 C        -0.919604         0.554879         0.656323
 C        -1.322433         2.035277         0.970239
 C        -2.400222         1.140911         1.656088
 C        -1.275331         0.246525         2.232525
 C        -3.705150         1.656475         2.103891
 C        -4.310897         1.799930         0.597026
 O        -3.478729         1.080502        -0.360145
 C        -2.610108         0.281945         0.425736
 H        -0.133325        -0.266892        -0.838901
 H        -0.582084         2.359728         1.695133
 H        -1.652534         2.788015         0.240804
 H        -0.770027         0.753587         3.164395
 H        -1.652930        -0.776773         2.521516
 H        -4.260161         0.826437         2.564718
 H        -3.710051         2.472559         2.770340
 H        -5.302855         1.393232         0.460028
 H        -4.299795         2.871156         0.341592
 H        -2.920350        -0.801730         0.595860
