19
Iteration:  2062
 O         0.012587         0.005425        -0.227222
 C        -1.003398         0.610367         0.651512
 C        -1.333893         2.004617         1.060547
 C        -2.438299         1.082131         1.819724
 C        -1.271766         0.267783         2.268525
 C        -3.771641         1.676916         2.017166
 C        -4.196274         1.902338         0.559976
 O        -3.411734         0.906014        -0.350819
 C        -2.504680         0.277806         0.552612
 H         0.764292        -0.087086         0.375760
 H        -0.734558         2.662365         1.762189
 H        -1.634937         2.671020         0.184589
 H        -0.540781         0.851778         2.978171
 H        -1.520731        -0.767869         2.596972
 H        -4.551458         0.936377         2.322395
 H        -3.724634         2.532784         2.632409
 H        -5.256396         1.583541         0.520648
 H        -4.042974         2.914651         0.102120
 H        -2.615624        -0.793783         0.737687
