19
Iteration:  3040
 O         0.055703        -0.009223        -0.108817
 C        -0.931917         0.563150         0.658738
 C        -1.351134         2.092953         1.002135
 C        -2.366082         1.154055         1.759866
 C        -1.221339         0.205904         2.214461
 C        -3.762039         1.672338         2.063679
 C        -4.210510         1.789627         0.566891
 O        -3.485267         0.923029        -0.365357
 C        -2.586076         0.331539         0.485498
 H         0.807904         0.088323         0.487785
 H        -0.908892         2.632792         1.820853
 H        -1.818016         2.761853         0.296387
 H        -0.580084         0.569865         2.970606
 H        -1.540598        -0.805116         2.462805
 H        -4.376833         0.983099         2.612904
 H        -3.977509         2.566819         2.557982
 H        -5.340251         1.684684         0.578711
 H        -4.058369         2.851353         0.276349
 H        -2.664955        -0.719824         0.630361
