19
Iteration:  3087
 O         0.049476        -0.110171        -0.178845
 C        -0.921561         0.477141         0.705037
 C        -1.310013         2.027818         0.961790
 C        -2.416918         1.239103         1.785015
 C        -1.277945         0.344009         2.293763
 C        -3.876352         1.507678         2.061767
 C        -4.272510         1.735179         0.519317
 O        -3.372777         1.153230        -0.336812
 C        -2.529154         0.334831         0.537912
 H         0.898655         0.403266        -0.161489
 H        -0.418199         2.555944         1.305495
 H        -1.622190         2.428786        -0.002806
 H        -0.576356         0.933060         2.973508
 H        -1.317660        -0.633179         2.644852
 H        -4.276414         0.640406         2.619066
 H        -4.093940         2.328545         2.787368
 H        -5.246220         1.375040         0.496960
 H        -4.424491         2.805010         0.450174
 H        -2.977984        -0.561092         0.889613
