19
Iteration:  2219charge 0 multiplicity 1
 O        -0.047420         0.044305        -0.206886
 C        -1.015858         0.517340         0.730769
 C        -1.249885         2.013539         1.057667
 C        -2.386465         1.205843         1.712124
 C        -1.364542         0.258704         2.291619
 C        -3.681906         1.791399         2.035196
 C        -4.341096         1.599058         0.560799
 O        -3.310299         1.017015        -0.349135
 C        -2.515989         0.233352         0.550186
 H         0.551405         0.782756        -0.310413
 H        -0.491063         2.458961         1.677676
 H        -1.517643         2.541606         0.137377
 H        -0.775289         0.688972         3.166766
 H        -1.580095        -0.831141         2.625936
 H        -4.115578         1.264196         2.840089
 H        -3.663875         2.872716         2.280543
 H        -5.216236         0.980767         0.515908
 H        -4.477886         2.567626         0.043552
 H        -2.802655        -0.786141         0.787113
