19
Iteration:   243
 O         0.085761         0.230056        -0.048739
 C        -1.015963         0.461886         0.725877
 C        -1.238277         1.892643         1.087516
 C        -2.419584         1.142654         1.783289
 C        -1.219705         0.158126         2.242474
 C        -3.801116         1.744747         1.923822
 C        -4.217838         1.973711         0.347881
 O        -3.505060         0.898252        -0.282209
 C        -2.554631         0.236020         0.607318
 H         0.551575        -0.651406        -0.171923
 H        -0.477279         2.330638         1.728263
 H        -1.541699         2.394990         0.141816
 H        -0.462345         0.595980         2.875720
 H        -1.564882        -0.837761         2.531009
 H        -4.442689         0.941580         2.263056
 H        -4.036877         2.713212         2.493067
 H        -5.336436         1.908815         0.199300
 H        -3.898127         2.978667         0.047110
 H        -2.958761        -0.785128         0.708170
