19
Iteration:  4436charge 0 multiplicity 1
 O         0.096607         0.052639        -0.025121
 C        -0.929188         0.567641         0.735282
 C        -1.334214         2.105797         0.974890
 C        -2.384330         1.189837         1.727046
 C        -1.331754         0.233518         2.253035
 C        -3.799409         1.636159         2.067265
 C        -4.177064         1.790732         0.485699
 O        -3.519884         0.841928        -0.305192
 C        -2.499559         0.288526         0.450377
 H         0.645796         0.779896        -0.366482
 H        -0.741997         2.642778         1.735389
 H        -1.637326         2.603990         0.074350
 H        -0.568556         0.579415         3.005451
 H        -1.648979        -0.741687         2.468941
 H        -4.481218         0.842255         2.453547
 H        -3.837591         2.559850         2.599056
 H        -5.278851         1.615856         0.485371
 H        -3.924310         2.794257         0.075924
 H        -2.769534        -0.788874         0.566908
