19
Iteration:  1465charge 0 multiplicity 1
 O         0.016882         0.148257        -0.152114
 C        -1.023947         0.556533         0.769444
 C        -1.240152         1.959199         1.242041
 C        -2.398813         1.109421         1.799411
 C        -1.257198         0.043631         2.250637
 C        -3.825306         1.661696         1.991395
 C        -4.253372         1.940898         0.406053
 O        -3.376558         1.046690        -0.387399
 C        -2.512362         0.296817         0.507679
 H        -0.322988        -0.744759        -0.448737
 H        -0.511573         2.281242         1.998747
 H        -1.377720         2.634784         0.410903
 H        -0.504889         0.312021         3.061034
 H        -1.471724        -1.058403         2.175923
 H        -4.463715         0.996801         2.462762
 H        -3.860224         2.562988         2.609259
 H        -5.304384         1.910005         0.050320
 H        -3.878495         2.921565         0.198505
 H        -2.893497        -0.788821         0.646560
