19
Iteration:  3466charge 0 multiplicity 1
 O         0.060357         0.000848        -0.027094
 C        -1.012952         0.639410         0.646928
 C        -1.251056         2.018718         1.078362
 C        -2.410706         1.166921         1.761559
 C        -1.369454         0.132641         2.224898
 C        -3.721115         1.943708         1.958738
 C        -4.383047         1.383864         0.696752
 O        -3.341595         1.127387        -0.397543
 C        -2.454307         0.344673         0.456059
 H        -0.155250         0.088088        -0.992295
 H        -0.622208         2.597562         1.834250
 H        -1.718805         2.704041         0.288435
 H        -0.480099         0.476258         2.837630
 H        -1.489837        -0.982077         2.351374
 H        -4.299595         1.636424         2.861796
 H        -3.488718         3.046158         1.929662
 H        -4.611682         0.388512         1.143331
 H        -5.121118         2.068992         0.130640
 H        -2.756802        -0.673310         0.665340
