19
Iteration:  3560charge 0 multiplicity 1
 O         0.150094         0.005631        -0.058978
 C        -0.950841         0.600123         0.659736
 C        -1.452961         2.046775         1.004848
 C        -2.456617         1.092285         1.787429
 C        -1.172656         0.325317         2.216084
 C        -3.863489         1.672331         2.064214
 C        -4.148125         1.895962         0.492386
 O        -3.472021         0.879352        -0.235395
 C        -2.549626         0.196848         0.511787
 H         0.170168         0.257768        -1.001742
 H        -0.922813         2.542361         1.766411
 H        -1.828863         2.613845         0.137385
 H        -0.286856         0.791627         2.746137
 H        -1.105505        -0.810178         2.237497
 H        -4.539436         0.918472         2.477425
 H        -3.911750         2.620152         2.604597
 H        -5.213188         1.899795         0.139310
 H        -3.795015         2.912088         0.316225
 H        -2.764152        -0.913768         0.593629
