19
Iteration:   752charge 0 multiplicity 1
 O         0.005051        -0.176920        -0.102299
 C        -0.921831         0.604960         0.730030
 C        -1.227643         2.039418         1.074542
 C        -2.427674         1.155349         1.658257
 C        -1.360710         0.327299         2.417714
 C        -3.794562         1.703181         2.002537
 C        -4.334635         1.579506         0.600864
 O        -3.348048         1.153581        -0.394203
 C        -2.468857         0.379833         0.392686
 H         0.919150        -0.023350         0.039477
 H        -0.641151         2.663158         1.812326
 H        -1.664246         2.562983         0.222478
 H        -0.855974         0.790392         3.249981
 H        -1.716835        -0.669848         2.567683
 H        -4.397633         1.050048         2.668965
 H        -3.706746         2.809496         2.276603
 H        -5.194772         0.854706         0.391293
 H        -4.672417         2.507077         0.091038
 H        -2.628271        -0.689964         0.235508
