19
Iteration:  4139
 O         0.215358         0.067065         0.076806
 C        -0.987934         0.584856         0.707513
 C        -1.239292         2.062956         0.915360
 C        -2.367597         1.230323         1.768045
 C        -1.309718         0.090472         2.238391
 C        -3.796451         1.688451         2.072486
 C        -4.359821         1.833274         0.588822
 O        -3.491121         0.913906        -0.372979
 C        -2.506290         0.308143         0.425458
 H        -0.152166         0.077713        -0.800097
 H        -0.381480         2.481473         1.490541
 H        -1.575645         2.758556         0.129621
 H        -0.607008         0.343242         2.990932
 H        -1.923545        -0.805640         2.202652
 H        -4.273704         0.844305         2.594704
 H        -4.041658         2.513634         2.766383
 H        -5.363493         1.417107         0.403985
 H        -4.210847         2.811364         0.102430
 H        -2.724908        -0.761847         0.407505
