19
Iteration:  2962charge 0 multiplicity 1
 O         0.072305         0.054668        -0.141491
 C        -0.986289         0.591698         0.738538
 C        -1.370114         2.061214         0.980913
 C        -2.420435         1.053546         1.775929
 C        -1.166574         0.295668         2.269927
 C        -3.819253         1.630254         1.968570
 C        -4.235604         1.879818         0.522716
 O        -3.441323         1.003752        -0.255749
 C        -2.491967         0.213613         0.533707
 H        -0.330705        -0.838552        -0.190006
 H        -0.749689         2.660517         1.640578
 H        -1.623492         2.659570         0.081743
 H        -0.313732         0.678400         2.739225
 H        -1.418501        -0.803009         2.389380
 H        -4.539382         0.920850         2.347918
 H        -3.671194         2.513837         2.544044
 H        -5.302428         1.450188         0.428614
 H        -4.002371         2.947886         0.319572
 H        -2.738648        -0.873316         0.707389
