19
Iteration:  2751charge 0 multiplicity 1
 O         0.038200         0.025492        -0.055633
 C        -0.972239         0.504687         0.664637
 C        -1.252747         1.966183         0.935946
 C        -2.361710         1.117850         1.731716
 C        -1.189967         0.319064         2.237872
 C        -3.786160         1.670184         2.077300
 C        -4.387167         1.811227         0.608165
 O        -3.468856         0.967374        -0.364584
 C        -2.503504         0.277683         0.531964
 H         0.733815         0.725882         0.043231
 H        -0.575497         2.673884         1.353198
 H        -1.690548         2.471615         0.093215
 H        -0.404242         0.910584         2.797523
 H        -1.397915        -0.679340         2.557335
 H        -4.352672         0.975558         2.600281
 H        -3.788758         2.663531         2.524592
 H        -5.439058         1.307063         0.569484
 H        -4.379891         2.756386         0.092717
 H        -2.854780        -0.745963         0.773772
