19
Iteration:  4109
 O         0.093655        -0.087624        -0.013191
 C        -0.987926         0.585321         0.693788
 C        -1.208393         2.035982         1.120708
 C        -2.360252         1.175806         1.748316
 C        -1.185386         0.259831         2.227310
 C        -3.847974         1.647240         2.002100
 C        -4.428673         1.679910         0.517939
 O        -3.412884         1.052417        -0.396119
 C        -2.522440         0.421640         0.492304
 H        -0.257928         0.149834        -0.907914
 H        -0.461331         2.240915         1.835690
 H        -1.418029         2.863634         0.376703
 H        -0.588870         0.879919         2.947669
 H        -1.390481        -0.715962         2.562840
 H        -4.302031         0.820146         2.576887
 H        -3.861736         2.565284         2.526945
 H        -5.236478         0.989145         0.474726
 H        -4.490377         2.683187         0.079408
 H        -2.867735        -0.625862         0.582126
