19
Iteration:  3336charge 0 multiplicity 1
 O         0.110131         0.084393        -0.063305
 C        -1.011819         0.588517         0.715554
 C        -1.323843         2.051981         0.947604
 C        -2.358213         1.244988         1.743577
 C        -1.274019         0.218356         2.209689
 C        -3.778004         1.595944         2.006997
 C        -4.147802         1.943600         0.499755
 O        -3.570437         0.808452        -0.250117
 C        -2.548937         0.188280         0.578986
 H         0.653556         0.722855        -0.554372
 H        -0.595390         2.545355         1.614530
 H        -1.547333         2.533927        -0.041401
 H        -0.418901         0.448729         2.924375
 H        -1.766598        -0.807455         2.329832
 H        -4.380960         0.748329         2.321842
 H        -3.949826         2.415162         2.734137
 H        -5.174930         1.962567         0.294804
 H        -3.932506         3.036538         0.391381
 H        -2.695399        -0.922771         0.713092
