19
Iteration:  2523charge 0 multiplicity 1
 O        -0.048647        -0.051273        -0.166765
 C        -1.013130         0.582656         0.665473
 C        -1.194918         2.048456         1.136488
 C        -2.391976         1.226220         1.802784
 C        -1.205882         0.234024         2.182828
 C        -3.762026         1.817767         2.009737
 C        -4.448377         1.497084         0.619242
 O        -3.357306         1.041908        -0.379704
 C        -2.511854         0.369364         0.504136
 H         0.886959         0.011914         0.146063
 H        -0.416294         2.501294         1.722971
 H        -1.521343         2.707402         0.306808
 H        -0.348082         0.500966         2.790234
 H        -1.406832        -0.781040         2.404898
 H        -4.350228         1.486673         2.878517
 H        -3.720928         2.954884         2.112872
 H        -5.114860         0.662826         0.570475
 H        -4.901887         2.383309         0.135596
 H        -2.758405        -0.628816         0.755058
