19
Iteration:  3925
 O        -0.009081         0.022906        -0.066818
 C        -0.896530         0.613468         0.762181
 C        -1.322995         2.055927         1.157000
 C        -2.374442         1.219654         1.757404
 C        -1.157373         0.165158         2.178867
 C        -3.788831         1.647911         1.958690
 C        -4.247804         1.868558         0.444072
 O        -3.528641         0.820949        -0.348344
 C        -2.464510         0.336395         0.608270
 H        -0.320459         0.503791        -0.856805
 H        -0.653563         2.651300         1.763671
 H        -1.543600         2.580431         0.191990
 H        -0.490677         0.702904         2.936021
 H        -1.427752        -0.876179         2.286271
 H        -4.469359         0.839962         2.312611
 H        -4.024449         2.547865         2.511393
 H        -5.242415         1.558017         0.487751
 H        -3.954947         2.777557         0.085252
 H        -2.718065        -0.723307         0.666950
