19
Iteration:  3158
 O         0.039407         0.113079        -0.174489
 C        -0.935997         0.534394         0.741595
 C        -1.240498         1.969001         1.054281
 C        -2.429052         1.110137         1.774851
 C        -1.222918         0.137521         2.298019
 C        -3.772794         1.906840         1.917479
 C        -4.367900         1.638637         0.552211
 O        -3.424252         1.017708        -0.313436
 C        -2.555066         0.254544         0.497484
 H         0.974017         0.135304         0.162564
 H        -0.600283         2.504498         1.808065
 H        -1.663004         2.687416         0.341437
 H        -0.427688         0.596276         2.911628
 H        -1.310034        -1.040720         2.265116
 H        -4.494158         1.695334         2.725021
 H        -3.557019         2.946677         2.236844
 H        -5.185966         1.003610         0.779816
 H        -4.809620         2.537731         0.176113
 H        -2.960139        -0.816278         0.497713
