19
Iteration:  3068charge 0 multiplicity 1
 O        -0.027022        -0.120541        -0.032082
 C        -0.991718         0.583378         0.682561
 C        -1.299834         2.057639         0.876019
 C        -2.368704         1.158767         1.754872
 C        -1.155079         0.342485         2.210853
 C        -3.863678         1.501779         2.058124
 C        -4.359536         1.836581         0.625380
 O        -3.331625         1.078151        -0.325131
 C        -2.509060         0.304936         0.466246
 H         0.827866         0.313515         0.168569
 H        -0.766391         2.622936         1.698587
 H        -1.732745         2.749167         0.100358
 H        -0.209469         0.631412         2.845471
 H        -1.421609        -0.728043         2.598737
 H        -4.466277         0.621970         2.483680
 H        -4.104154         2.445614         2.722616
 H        -5.376297         1.515369         0.329816
 H        -4.224081         2.878067         0.306681
 H        -2.697937        -0.845443         0.503757
