19
Iteration:  1303charge 0 multiplicity 1
 O         0.023592         0.061643        -0.144605
 C        -0.993262         0.432655         0.721081
 C        -1.252500         1.946268         1.139545
 C        -2.365256         1.103042         1.818328
 C        -1.257395         0.054840         2.253566
 C        -3.766531         1.812717         1.917923
 C        -4.426096         1.693879         0.478528
 O        -3.276079         1.179118        -0.344128
 C        -2.579364         0.345473         0.515700
 H         0.842454         0.306308         0.319285
 H        -0.602684         2.530922         1.854139
 H        -1.688219         2.517546         0.356617
 H        -0.418003         0.396508         2.869136
 H        -1.502146        -1.010030         2.377727
 H        -4.584861         1.535078         2.673082
 H        -3.686802         2.902153         2.214475
 H        -5.376245         1.125488         0.403597
 H        -4.647889         2.709788         0.102996
 H        -3.086067        -0.576776         0.641800
