19
Iteration:  4759
 O         0.175562         0.237154         0.096080
 C        -1.016057         0.533846         0.675881
 C        -1.402192         2.000360         0.878130
 C        -2.405004         1.108361         1.810611
 C        -1.200776         0.158833         2.211427
 C        -3.843253         1.604345         1.999740
 C        -4.188901         1.940021         0.542895
 O        -3.505117         0.938393        -0.336689
 C        -2.515723         0.229204         0.478475
 H         0.469733        -0.683381         0.319158
 H        -0.571844         2.572739         1.397875
 H        -1.782551         2.519278        -0.040131
 H        -0.359075         0.562033         2.745400
 H        -1.607681        -0.786453         2.409163
 H        -4.432958         0.739311         2.320327
 H        -3.990061         2.522531         2.605730
 H        -5.239838         1.689764         0.247131
 H        -3.993032         2.967940         0.324240
 H        -2.836047        -0.849156         0.494793
