19
Iteration:  3608charge 0 multiplicity 1
 O         0.068368         0.227445        -0.137758
 C        -1.009064         0.557295         0.681161
 C        -1.264055         2.024571         1.021037
 C        -2.379707         1.243555         1.758391
 C        -1.340190         0.136969         2.250155
 C        -3.765793         1.712324         1.988000
 C        -4.250603         1.745964         0.529549
 O        -3.374583         0.846599        -0.275789
 C        -2.510839         0.200454         0.592735
 H        -0.235961         0.081853        -1.055380
 H        -0.485356         2.397715         1.751000
 H        -1.674508         2.665853         0.239709
 H        -0.722808         0.489785         3.034481
 H        -1.913031        -0.742406         2.508618
 H        -4.400741         1.111369         2.672504
 H        -3.720758         2.762240         2.383004
 H        -5.344958         1.612077         0.467371
 H        -4.035526         2.785044         0.042579
 H        -2.795717        -0.847815         0.857258
