19
Iteration:  1993charge 0 multiplicity 1
 O         0.150695        -0.032354        -0.015799
 C        -0.913622         0.552073         0.741946
 C        -1.315533         2.022239         1.078556
 C        -2.407872         1.109372         1.732129
 C        -1.272098         0.201740         2.188088
 C        -3.759142         1.675028         1.992657
 C        -4.381375         1.809738         0.635246
 O        -3.506060         1.063672        -0.343994
 C        -2.422021         0.349198         0.407370
 H        -0.206203        -0.789414        -0.558441
 H        -0.868128         2.782914         1.773512
 H        -1.637620         2.528747         0.094817
 H        -0.474502         0.580433         2.729634
 H        -1.463171        -0.856173         2.324962
 H        -4.328321         1.197444         2.834913
 H        -3.605925         2.771538         2.200203
 H        -5.476044         1.424553         0.589084
 H        -4.364135         2.848418         0.218062
 H        -2.704129        -0.665367         0.377783
