19
Iteration:   805charge 0 multiplicity 1
 O         0.057235         0.078415        -0.115382
 C        -0.991741         0.477021         0.746066
 C        -1.214691         1.998952         0.973894
 C        -2.414541         1.211840         1.788988
 C        -1.268684         0.234968         2.267858
 C        -3.873296         1.637747         1.966261
 C        -4.284343         1.906292         0.477670
 O        -3.407756         0.940246        -0.349661
 C        -2.516092         0.260816         0.612039
 H         0.834104        -0.165506         0.348094
 H        -0.539746         2.545270         1.641675
 H        -1.540209         2.693495         0.208527
 H        -0.626206         0.671012         2.979352
 H        -1.470045        -0.807266         2.576658
 H        -4.575743         0.863214         2.377656
 H        -4.122407         2.521652         2.603609
 H        -5.311533         1.619144         0.283243
 H        -4.104366         2.815205        -0.074808
 H        -2.655886        -0.830489         0.634569
