19
Iteration:  3017charge 0 multiplicity 1
 O         0.110394         0.213143        -0.233755
 C        -0.968420         0.493715         0.726884
 C        -1.222922         1.930588         1.036568
 C        -2.430066         1.143636         1.740304
 C        -1.287542         0.174808         2.236463
 C        -3.792771         1.763226         1.972176
 C        -4.289016         1.859296         0.510699
 O        -3.528182         0.900961        -0.230512
 C        -2.496724         0.230098         0.558855
 H         0.762980        -0.066624         0.466703
 H        -0.343532         2.262842         1.567671
 H        -1.566321         2.487070         0.151856
 H        -0.853290         0.667980         3.047194
 H        -1.485133        -0.872834         2.583760
 H        -4.478883         1.163211         2.525861
 H        -3.797506         2.608405         2.596565
 H        -5.449992         1.662820         0.340794
 H        -4.184156         2.921959         0.150230
 H        -2.553212        -0.847952         0.741298
