19
Iteration:   449charge 0 multiplicity 1
 O         0.102592        -0.030535        -0.028287
 C        -0.894129         0.581331         0.743869
 C        -1.261195         2.028227         1.052571
 C        -2.461950         1.150856         1.736597
 C        -1.372032         0.191739         2.319184
 C        -3.787240         1.673271         1.951725
 C        -4.272749         1.706877         0.565410
 O        -3.398232         1.140998        -0.391139
 C        -2.477036         0.349506         0.444143
 H        -0.346880        -0.778975        -0.525440
 H        -0.639190         2.581188         1.721811
 H        -1.526774         2.595289         0.107743
 H        -0.585755         0.638325         2.919188
 H        -1.675591        -0.848115         2.577968
 H        -4.303984         1.036638         2.625762
 H        -3.749354         2.624312         2.487084
 H        -5.126628         1.091340         0.486602
 H        -4.574643         2.729672         0.200669
 H        -2.895974        -0.655040         0.482769
