19
Iteration:   645charge 0 multiplicity 1
 O         0.153860        -0.008212         0.060704
 C        -1.026118         0.543862         0.729600
 C        -1.260611         2.024094         0.920511
 C        -2.310545         1.266007         1.775688
 C        -1.311034         0.169620         2.189712
 C        -3.847413         1.693218         1.970185
 C        -4.371734         1.672919         0.479843
 O        -3.331204         1.099304        -0.310825
 C        -2.553909         0.351556         0.566271
 H        -0.005169        -0.651324        -0.642951
 H        -0.449548         2.422082         1.552995
 H        -1.546124         2.671875         0.133959
 H        -0.530823         0.402387         2.942723
 H        -1.611155        -0.863437         2.323247
 H        -4.337792         0.933084         2.518167
 H        -4.221910         2.585299         2.458468
 H        -5.310247         1.242337         0.311826
 H        -4.431841         2.758041         0.268550
 H        -3.010522        -0.648547         0.694771
