19
Iteration:  1183charge 0 multiplicity 1
 O        -0.019459         0.155453        -0.211175
 C        -1.035784         0.511041         0.760961
 C        -1.290436         1.987030         1.118219
 C        -2.422542         1.120882         1.847108
 C        -1.260973         0.118377         2.325196
 C        -3.848140         1.675189         1.933705
 C        -4.238252         1.914957         0.478917
 O        -3.281359         1.026610        -0.367758
 C        -2.505865         0.236621         0.510329
 H         0.126038        -0.828496        -0.246056
 H        -0.543737         2.355749         1.932787
 H        -1.599950         2.688347         0.380755
 H        -0.539794         0.417742         3.051926
 H        -1.585551        -0.915749         2.441988
 H        -4.546928         0.985112         2.575958
 H        -3.737603         2.636837         2.542733
 H        -5.221121         1.799482         0.008261
 H        -3.815277         2.934273         0.304712
 H        -2.977050        -0.792536         0.705294
