19
Iteration:  4058charge 0 multiplicity 1
 O         0.129383         0.007652        -0.074313
 C        -1.033586         0.551525         0.669183
 C        -1.220478         1.991085         1.087100
 C        -2.387783         1.191615         1.752739
 C        -1.294488         0.213042         2.256691
 C        -3.797720         1.797910         2.038301
 C        -4.393926         1.576008         0.532957
 O        -3.339837         1.126089        -0.373578
 C        -2.539509         0.270508         0.513429
 H         0.067946         0.537140        -0.878970
 H        -0.437470         2.394574         1.751222
 H        -1.480805         2.634292         0.208179
 H        -0.484151         0.488760         2.993380
 H        -1.624398        -0.779599         2.691318
 H        -4.356065         1.128510         2.736392
 H        -3.732629         2.875815         2.304143
 H        -5.193889         0.721852         0.664572
 H        -4.810166         2.439393        -0.009564
 H        -3.043243        -0.721800         0.635624
