19
Iteration:  3682charge 0 multiplicity 1
 O         0.125208        -0.098218         0.013634
 C        -0.965766         0.552119         0.716031
 C        -1.304585         2.075503         0.891983
 C        -2.334346         1.214812         1.716710
 C        -1.313675         0.265985         2.303838
 C        -3.742474         1.587320         2.087038
 C        -4.444187         1.612839         0.557384
 O        -3.404107         1.208459        -0.304089
 C        -2.462395         0.337734         0.411226
 H         0.385212         0.335446        -0.803904
 H        -0.475179         2.582319         1.441985
 H        -1.711062         2.607840         0.021806
 H        -0.692598         0.611969         3.123759
 H        -1.743784        -0.842417         2.329170
 H        -4.066261         0.831551         2.811755
 H        -3.837854         2.617150         2.514666
 H        -5.245225         0.879413         0.371183
 H        -4.948704         2.501960         0.213221
 H        -2.865322        -0.684110         0.553943
