19
Iteration:  4673
 O         0.086829         0.058279        -0.078878
 C        -0.976029         0.552773         0.679289
 C        -1.352234         1.984375         1.118425
 C        -2.369240         1.132747         1.785169
 C        -1.237862         0.215930         2.312326
 C        -3.807232         1.819155         1.986636
 C        -4.382369         1.573815         0.449264
 O        -3.279784         1.121467        -0.284737
 C        -2.542502         0.254872         0.455951
 H        -0.134560         0.127112        -1.044954
 H        -0.653503         2.573348         1.769692
 H        -1.793976         2.639253         0.314986
 H        -0.491780         0.695602         3.047619
 H        -1.313778        -0.748485         2.709823
 H        -4.322825         1.047937         2.589846
 H        -4.000297         2.875300         2.234649
 H        -5.126207         0.765731         0.394821
 H        -4.668818         2.510848        -0.013775
 H        -2.867175        -0.806514         0.510594
