19
Iteration:  2738
 O         0.116918         0.052246        -0.223360
 C        -0.958107         0.515280         0.711388
 C        -1.357861         2.000189         0.927747
 C        -2.401423         1.215604         1.808356
 C        -1.256206         0.267320         2.332418
 C        -3.779402         1.742876         2.065633
 C        -4.219439         1.779212         0.541598
 O        -3.513253         0.897376        -0.318632
 C        -2.529026         0.250934         0.515430
 H         0.936420         0.524033        -0.036247
 H        -0.592596         2.460459         1.608001
 H        -1.755794         2.511656         0.008112
 H        -0.550916         0.700865         3.094231
 H        -1.453658        -0.727701         2.619786
 H        -4.378442         0.973321         2.570943
 H        -3.885109         2.640158         2.694609
 H        -5.329399         1.374969         0.573630
 H        -4.257674         2.854216         0.200781
 H        -2.855547        -0.812040         0.634482
