19
Iteration:   852
 O         0.111191         0.104498        -0.010646
 C        -1.039307         0.591321         0.680500
 C        -1.339632         1.959127         1.066947
 C        -2.430798         1.083935         1.791519
 C        -1.224422         0.150249         2.181125
 C        -3.803700         1.784996         1.973764
 C        -4.132413         1.971853         0.429074
 O        -3.528729         0.798312        -0.253108
 C        -2.565048         0.238739         0.460226
 H         0.922830         0.500404         0.346690
 H        -0.605660         2.503863         1.704943
 H        -1.625019         2.563935         0.238543
 H        -0.472048         0.603901         2.846220
 H        -1.448460        -0.818369         2.456940
 H        -4.496438         1.096357         2.444264
 H        -3.855994         2.703829         2.609721
 H        -5.209480         1.914433         0.125211
 H        -3.720155         2.849979        -0.079102
 H        -2.872313        -0.780244         0.664521
