19
Iteration:   815charge 0 multiplicity 1
 O         0.064596         0.086961        -0.167873
 C        -0.865206         0.511198         0.777251
 C        -1.281287         1.988455         1.079978
 C        -2.429337         1.173928         1.671471
 C        -1.346679         0.270679         2.345118
 C        -3.807381         1.684447         1.975675
 C        -4.206744         1.881071         0.472628
 O        -3.484487         0.868228        -0.304771
 C        -2.547635         0.290198         0.483149
 H         0.823643        -0.179148         0.316579
 H        -0.656801         2.621743         1.696493
 H        -1.584287         2.443636         0.109959
 H        -0.723346         0.781713         3.049460
 H        -1.750103        -0.745244         2.662186
 H        -4.351713         0.782731         2.380494
 H        -3.822609         2.558686         2.646671
 H        -5.236968         1.704517         0.230708
 H        -3.890933         2.902794         0.295610
 H        -2.760593        -0.800180         0.638810
