19
Iteration:   149charge 0 multiplicity 1
 O         0.063836        -0.089987        -0.062431
 C        -0.963801         0.540904         0.682716
 C        -1.285289         2.027585         0.971777
 C        -2.397248         1.211095         1.714751
 C        -1.431449         0.290577         2.269027
 C        -3.791761         1.716933         1.987777
 C        -4.282304         1.712670         0.589809
 O        -3.278530         1.076132        -0.338210
 C        -2.533965         0.269433         0.542093
 H         0.621431         0.558727        -0.509059
 H        -0.639412         2.475960         1.788670
 H        -1.702110         2.620412         0.117570
 H        -0.798111         0.549392         3.223560
 H        -1.630275        -0.828657         2.506358
 H        -4.290093         0.948700         2.699302
 H        -3.874544         2.682186         2.480578
 H        -5.146977         1.050514         0.451856
 H        -4.502505         2.708954         0.092318
 H        -2.846619        -0.819540         0.596760
