19
Iteration:  2823
 O         0.027686         0.048081        -0.135593
 C        -0.994310         0.545432         0.665381
 C        -1.159639         1.995993         1.084129
 C        -2.368178         1.261502         1.765287
 C        -1.294216         0.264629         2.221421
 C        -3.739853         1.789217         1.960620
 C        -4.438564         1.485452         0.593511
 O        -3.390533         1.087594        -0.308215
 C        -2.485067         0.336903         0.516838
 H        -0.159825        -0.880977        -0.446501
 H        -0.355174         2.475243         1.760419
 H        -1.387605         2.819818         0.320577
 H        -0.530210         0.799716         2.847008
 H        -1.727355        -0.696453         2.656653
 H        -4.372750         1.093555         2.646438
 H        -3.648109         2.857474         2.269866
 H        -4.937787         0.548952         0.673517
 H        -4.974352         2.365919         0.138846
 H        -2.818939        -0.736906         0.679587
