19
Iteration:  4488charge 0 multiplicity 1
 O         0.098083         0.080220         0.007585
 C        -0.994939         0.592563         0.693695
 C        -1.421512         2.009455         0.891957
 C        -2.362289         1.177443         1.776256
 C        -1.202773         0.204768         2.259490
 C        -3.826837         1.599582         1.985739
 C        -4.276537         1.814525         0.491531
 O        -3.405147         0.977542        -0.345572
 C        -2.535105         0.216953         0.584098
 H         0.782152         0.783216         0.013740
 H        -0.715990         2.620872         1.416666
 H        -2.035217         2.431006         0.032526
 H        -0.468084         0.603951         3.027972
 H        -1.372193        -0.909458         2.318509
 H        -4.299854         0.868049         2.676395
 H        -3.840067         2.542703         2.503484
 H        -5.404756         1.691349         0.398288
 H        -3.941421         2.854332         0.316805
 H        -2.831933        -0.842200         0.644922
