19
Iteration:  3626
 O         0.095777         0.040415        -0.167906
 C        -0.923120         0.541794         0.738142
 C        -1.245106         2.074707         1.089564
 C        -2.401920         1.162093         1.787495
 C        -1.281281         0.269478         2.285902
 C        -3.820059         1.697593         2.027944
 C        -4.344408         1.732701         0.548355
 O        -3.437341         0.931711        -0.384952
 C        -2.450978         0.352183         0.521116
 H        -0.435413        -0.215877        -0.944440
 H        -0.632134         2.555098         1.838443
 H        -1.591528         2.606029         0.154269
 H        -0.502891         0.632727         2.998780
 H        -1.536956        -0.870670         2.488658
 H        -4.373238         0.947712         2.618972
 H        -3.951715         2.647289         2.583074
 H        -5.254109         1.132137         0.411067
 H        -4.373832         2.716462         0.160521
 H        -2.752514        -0.712819         0.688135
