19
Iteration:    98
 O         0.101280         0.052485        -0.043602
 C        -1.018344         0.540425         0.642896
 C        -1.231160         2.031359         1.068945
 C        -2.399347         1.205975         1.741243
 C        -1.271511         0.150484         2.160288
 C        -3.785544         1.913934         1.959648
 C        -4.444530         1.503567         0.485276
 O        -3.297100         1.075119        -0.289641
 C        -2.539457         0.340643         0.608359
 H         0.135584        -0.872662         0.185790
 H        -0.425183         2.201959         1.729297
 H        -1.386917         2.744806         0.328618
 H        -0.627143         0.340439         2.988638
 H        -1.576413        -0.828025         2.250504
 H        -4.403773         1.650513         2.841069
 H        -3.649379         2.969927         2.122841
 H        -5.214777         0.721035         0.417741
 H        -4.774456         2.333041        -0.216287
 H        -3.137773        -0.573045         0.817751
