19
Iteration:   356charge 0 multiplicity 1
 O         0.067148         0.009694         0.074274
 C        -1.009643         0.544169         0.711476
 C        -1.264620         2.034754         1.018196
 C        -2.383233         1.173193         1.690930
 C        -1.413786         0.225934         2.235644
 C        -3.657366         1.692633         2.073449
 C        -4.346238         1.645419         0.531015
 O        -3.333412         1.120627        -0.431764
 C        -2.492443         0.374174         0.432322
 H        -0.376452        -0.777470        -0.272831
 H        -0.448026         2.390443         1.754224
 H        -1.560060         2.680046         0.175784
 H        -0.614581         0.515107         3.007697
 H        -1.751296        -0.850951         2.397312
 H        -4.198938         1.088084         2.863637
 H        -3.723327         2.754090         2.366765
 H        -5.176027         0.896291         0.498014
 H        -4.704297         2.571124         0.107681
 H        -2.849533        -0.668242         0.638251
