19
Iteration:  2369charge 0 multiplicity 1
 O        -0.068197         0.027385        -0.171145
 C        -1.009111         0.581636         0.674488
 C        -1.246193         1.990390         0.951924
 C        -2.404586         1.172388         1.769821
 C        -1.250715         0.200672         2.314683
 C        -3.775147         1.733722         2.021943
 C        -4.327985         1.676809         0.581063
 O        -3.321898         0.993435        -0.321835
 C        -2.470355         0.317235         0.569323
 H         0.698436         0.594824        -0.230575
 H        -0.685371         2.674858         1.611356
 H        -1.562445         2.570739         0.050154
 H        -0.588983         0.544020         3.110872
 H        -1.556802        -0.783707         2.468367
 H        -4.418529         1.094150         2.649099
 H        -3.709570         2.767679         2.493743
 H        -5.339068         1.220451         0.435533
 H        -4.564971         2.649134         0.024831
 H        -2.701490        -0.787877         0.807249
