19
Iteration:  2030
 O         0.108839        -0.014552         0.065669
 C        -1.051717         0.484268         0.646535
 C        -1.263123         1.947339         0.859421
 C        -2.381087         1.243009         1.769714
 C        -1.219667         0.220172         2.164014
 C        -3.835287         1.556260         2.029947
 C        -4.297286         1.848106         0.588635
 O        -3.413603         1.073167        -0.321205
 C        -2.554063         0.337039         0.526465
 H         0.274740         0.830005        -0.441862
 H        -0.512688         2.451194         1.473330
 H        -1.622419         2.403400        -0.077184
 H        -0.270424         0.536262         2.822105
 H        -1.598726        -0.796273         2.509620
 H        -4.304278         0.703133         2.525045
 H        -3.991129         2.397728         2.642530
 H        -5.357119         1.646489         0.523810
 H        -4.122537         2.934831         0.455851
 H        -2.870929        -0.725608         0.775463
