19
Iteration:  1693charge 0 multiplicity 1
 O         0.240833         0.032335         0.068644
 C        -0.969596         0.483867         0.683683
 C        -1.246545         2.037232         1.073284
 C        -2.410886         1.171562         1.730285
 C        -1.477090        -0.004866         2.175070
 C        -3.773934         1.714381         2.052545
 C        -4.365763         1.787533         0.637347
 O        -3.388307         1.186456        -0.347145
 C        -2.499075         0.310187         0.311097
 H         0.098463        -0.302391        -0.869116
 H        -0.559254         2.461380         1.778691
 H        -1.565458         2.748632         0.248178
 H        -0.663631         0.316285         2.816419
 H        -1.907892        -0.915149         2.389818
 H        -4.360230         1.059662         2.779078
 H        -3.588705         2.747042         2.464365
 H        -5.397707         1.337360         0.622413
 H        -4.473636         2.817086         0.274628
 H        -2.778094        -0.807147         0.132404
