19
Iteration:  1917charge 0 multiplicity 1
 O        -0.050654        -0.146853        -0.216022
 C        -0.954940         0.534200         0.700564
 C        -1.294655         2.100362         1.140497
 C        -2.404648         1.106975         1.776948
 C        -1.325869         0.169958         2.276348
 C        -3.767758         1.727426         2.012403
 C        -4.343284         1.629912         0.534278
 O        -3.256347         1.212470        -0.352091
 C        -2.467187         0.373887         0.499076
 H         0.782179         0.352186        -0.229211
 H        -0.592987         2.499706         1.915306
 H        -1.736276         2.784806         0.369398
 H        -0.751315         0.627973         3.062217
 H        -1.707581        -0.880524         2.448429
 H        -4.404247         1.183123         2.743971
 H        -3.628533         2.766972         2.395235
 H        -5.197293         0.919842         0.594174
 H        -4.721656         2.607335         0.129248
 H        -2.905287        -0.669155         0.506805
