19
Iteration:   404charge 0 multiplicity 1
 O         0.078068         0.198400        -0.055345
 C        -1.036406         0.353315         0.715362
 C        -1.095718         1.961671         1.146749
 C        -2.419552         1.165981         1.813136
 C        -1.253891         0.060547         2.204187
 C        -3.775980         1.868560         1.891514
 C        -4.387168         1.642304         0.460734
 O        -3.391410         1.104300        -0.345262
 C        -2.583893         0.363293         0.562276
 H         0.256122        -0.805797        -0.071717
 H        -0.343467         2.369373         1.828180
 H        -1.461771         2.575999         0.291225
 H        -0.666788         0.617251         2.902497
 H        -1.439843        -0.992706         2.601864
 H        -4.575314         1.598594         2.533827
 H        -3.635711         2.920248         2.055757
 H        -5.187949         0.961781         0.402043
 H        -4.724339         2.524470        -0.176839
 H        -3.051602        -0.634750         0.651462
