19
Iteration:   340charge 0 multiplicity 1
 O         0.112002        -0.052747         0.047501
 C        -0.954499         0.507287         0.747240
 C        -1.115181         2.044579         1.051918
 C        -2.345634         1.326293         1.758201
 C        -1.245249         0.187828         2.222435
 C        -3.895280         1.696562         1.921436
 C        -4.437781         1.641484         0.547430
 O        -3.404606         1.145834        -0.389021
 C        -2.546085         0.336531         0.451974
 H         0.029507        -0.864516        -0.523099
 H        -0.498544         2.488327         1.764900
 H        -1.343327         2.634194         0.150705
 H        -0.547575         0.490874         2.929634
 H        -1.674295        -0.737400         2.478161
 H        -4.276307         0.863481         2.463189
 H        -4.026824         2.576947         2.552274
 H        -5.405961         1.122965         0.541288
 H        -4.644350         2.714035         0.294905
 H        -2.925871        -0.698617         0.540477
