19
Iteration:  1888
 O         0.038077        -0.114796         0.078683
 C        -1.046009         0.596261         0.682522
 C        -1.132007         2.047264         1.048508
 C        -2.373879         1.134529         1.833845
 C        -1.211592         0.121239         2.113471
 C        -3.788599         1.674792         2.034770
 C        -4.417551         1.675131         0.519496
 O        -3.361219         1.235486        -0.433575
 C        -2.577901         0.383126         0.519087
 H         0.277232         0.339019        -0.783677
 H        -0.362802         2.364646         1.715790
 H        -1.463648         2.835980         0.340237
 H        -0.482863         0.381045         2.980552
 H        -1.479822        -0.974813         2.193071
 H        -4.368041         0.945489         2.623010
 H        -3.861601         2.562722         2.607953
 H        -5.292055         1.019116         0.559114
 H        -4.712406         2.619269         0.017549
 H        -2.989508        -0.650719         0.542630
