19
Iteration:  1327charge 0 multiplicity 1
 O        -0.090499         0.069783        -0.234547
 C        -0.955427         0.519424         0.725510
 C        -1.195351         1.963362         1.168308
 C        -2.427272         1.182343         1.804092
 C        -1.337806         0.106313         2.283073
 C        -3.827866         1.828472         2.005289
 C        -4.269184         1.622758         0.446087
 O        -3.230837         1.151831        -0.352862
 C        -2.521764         0.299445         0.515760
 H         0.671693        -0.387745         0.087183
 H        -0.509320         2.339182         1.979168
 H        -1.485251         2.761596         0.414419
 H        -0.584432         0.426443         3.052635
 H        -1.686844        -0.894719         2.402709
 H        -4.654113         1.266385         2.638056
 H        -3.933419         2.846909         2.453088
 H        -5.082529         0.907596         0.494677
 H        -4.735439         2.593104         0.148118
 H        -2.917892        -0.705564         0.476413
