19
Iteration:  4399
 O         0.083928         0.043677        -0.088615
 C        -1.021726         0.506740         0.732286
 C        -1.283365         2.032077         1.046267
 C        -2.439288         1.157588         1.770024
 C        -1.136330         0.239847         2.260726
 C        -3.880230         1.696384         1.993623
 C        -4.254428         1.687722         0.408875
 O        -3.368163         1.031106        -0.275850
 C        -2.563399         0.250285         0.568536
 H        -0.002040         0.744289        -0.799769
 H        -0.637381         2.501792         1.770607
 H        -1.516913         2.866839         0.262490
 H        -0.362114         0.729792         2.843644
 H        -1.447808        -0.851957         2.583606
 H        -4.539434         1.184970         2.686613
 H        -3.866884         2.734138         2.435682
 H        -5.294651         1.126564         0.267437
 H        -4.399996         2.645874        -0.197782
 H        -2.913755        -0.776663         0.754382
