19
Iteration:  4777
 O         0.252515         0.220845         0.068734
 C        -0.948090         0.568855         0.658531
 C        -1.486946         1.999739         0.976439
 C        -2.476147         1.096062         1.675927
 C        -1.281951         0.190924         2.129293
 C        -3.745019         1.637984         2.023852
 C        -4.189987         1.898684         0.547016
 O        -3.430779         0.931375        -0.314257
 C        -2.624100         0.191081         0.533776
 H         0.503876        -0.692234         0.377687
 H        -0.936454         2.650546         1.586042
 H        -1.966620         2.457380         0.090682
 H        -0.649923         0.602682         2.924965
 H        -1.360108        -0.996225         2.161284
 H        -4.470554         1.031853         2.535694
 H        -3.742307         2.517106         2.724366
 H        -5.257589         1.966333         0.331041
 H        -3.830374         2.829648         0.032225
 H        -2.885932        -0.841803         0.761181
