19
Iteration:  2685charge 0 multiplicity 1
 O        -0.053236         0.054217        -0.241151
 C        -0.990542         0.537338         0.689412
 C        -1.360207         2.059631         1.135400
 C        -2.344055         1.157003         1.803214
 C        -1.067316         0.292181         2.269114
 C        -3.845393         1.670848         1.957414
 C        -4.224819         1.884764         0.424255
 O        -3.494036         0.829425        -0.290885
 C        -2.514215         0.193092         0.614620
 H         0.814433         0.376076         0.010259
 H        -0.797162         2.674265         1.769133
 H        -1.848204         2.583592         0.323496
 H        -0.209785         0.771291         2.876968
 H        -1.153224        -0.718249         2.642987
 H        -4.525267         1.062924         2.456933
 H        -3.807826         2.680702         2.423876
 H        -5.316109         1.823427         0.171324
 H        -3.750590         2.818480         0.356719
 H        -2.979128        -0.804558         0.887528
