19
Iteration:  3254
 O        -0.063595        -0.041872        -0.143362
 C        -0.977498         0.553155         0.730006
 C        -1.301192         2.050035         0.918987
 C        -2.358873         1.203604         1.746190
 C        -1.301496         0.268790         2.262047
 C        -3.768328         1.669354         2.092826
 C        -4.358842         1.671251         0.537492
 O        -3.285720         1.040631        -0.314599
 C        -2.461624         0.340954         0.542719
 H         0.878915         0.218245         0.014862
 H        -0.680887         2.730802         1.550430
 H        -1.824129         2.630377         0.170402
 H        -0.552654         0.637211         2.965703
 H        -1.559706        -0.730935         2.432771
 H        -4.251835         0.798521         2.609032
 H        -3.984430         2.606106         2.666005
 H        -5.289772         1.020817         0.294974
 H        -4.467791         2.625174         0.076881
 H        -2.822345        -0.646269         0.714993
