19
Iteration:  4288
 O         0.119208         0.053925        -0.043214
 C        -1.027037         0.516749         0.673144
 C        -1.321918         2.131129         0.983760
 C        -2.421077         1.182662         1.757967
 C        -1.376008         0.158289         2.190137
 C        -3.718811         1.784635         2.099450
 C        -4.338852         1.533580         0.601356
 O        -3.295257         1.124004        -0.386798
 C        -2.489208         0.221653         0.391071
 H         0.554043        -0.350561         0.698449
 H        -0.603270         2.745174         1.634873
 H        -1.747199         2.798356         0.322413
 H        -0.792317         0.515706         3.035781
 H        -1.701871        -0.872032         2.545329
 H        -4.316173         1.325638         2.864163
 H        -3.659922         2.904614         2.168127
 H        -5.305197         1.002300         0.803841
 H        -4.743338         2.449888         0.110612
 H        -3.022865        -0.750878         0.458208
