19
Iteration:  3012charge 0 multiplicity 1
 O         0.074645         0.259942        -0.210390
 C        -0.961999         0.481232         0.713662
 C        -1.198747         1.899775         1.005961
 C        -2.407142         1.118309         1.750079
 C        -1.268683         0.145417         2.266311
 C        -3.767435         1.769232         1.942949
 C        -4.269047         1.843697         0.480907
 O        -3.532347         0.899204        -0.223346
 C        -2.555435         0.260135         0.569354
 H         0.741693        -0.058373         0.408205
 H        -0.414400         2.369060         1.683462
 H        -1.548830         2.551298         0.188452
 H        -0.822024         0.806509         3.110458
 H        -1.520583        -0.892756         2.552952
 H        -4.477707         1.042137         2.468287
 H        -3.856144         2.743000         2.562620
 H        -5.303043         1.626530         0.529224
 H        -4.135473         2.858770         0.109830
 H        -2.681701        -0.849943         0.702086
