19
Iteration:  3343charge 0 multiplicity 1
 O         0.119295         0.058565        -0.042453
 C        -0.957259         0.523599         0.695625
 C        -1.319110         2.059391         0.924712
 C        -2.374038         1.240767         1.697693
 C        -1.277341         0.265618         2.226570
 C        -3.794754         1.568704         1.980928
 C        -4.155490         1.943355         0.573837
 O        -3.552887         0.870341        -0.280294
 C        -2.561489         0.159067         0.577350
 H         0.414012         0.865188        -0.553286
 H        -0.571428         2.542956         1.582297
 H        -1.656488         2.775343         0.143817
 H        -0.501073         0.533677         2.849641
 H        -1.547090        -0.756164         2.465547
 H        -4.263391         0.616900         2.340607
 H        -4.059267         2.331106         2.717288
 H        -5.283326         1.833750         0.387430
 H        -3.821141         2.975758         0.298073
 H        -2.980723        -0.759691         0.948076
