19
Iteration:  2047charge 0 multiplicity 1
 O         0.046922         0.001626        -0.122760
 C        -0.924847         0.490518         0.752432
 C        -1.322454         2.031102         0.933329
 C        -2.370874         1.182374         1.770898
 C        -1.155922         0.173328         2.248048
 C        -3.871420         1.626157         2.019312
 C        -4.269519         1.887266         0.512903
 O        -3.453729         1.028032        -0.282721
 C        -2.557123         0.272351         0.566245
 H         0.961137         0.390722        -0.015605
 H        -0.586433         2.683059         1.435376
 H        -1.795962         2.507467         0.011750
 H        -0.486006         0.536863         2.927566
 H        -1.399220        -0.861262         2.429871
 H        -4.394425         0.759214         2.514446
 H        -4.133556         2.535335         2.663467
 H        -5.367852         1.730745         0.168022
 H        -4.088305         2.940852         0.226044
 H        -3.015092        -0.702735         0.624997
