19
Iteration:  3395
 O         0.099862        -0.071045         0.015737
 C        -0.971611         0.612017         0.638525
 C        -1.409054         2.091078         1.032947
 C        -2.399788         1.194849         1.754555
 C        -1.232637         0.231127         2.153951
 C        -3.713799         1.663543         2.008223
 C        -4.366859         1.630616         0.586448
 O        -3.321374         1.066109        -0.314227
 C        -2.557767         0.396772         0.504327
 H        -0.176570        -0.446293        -0.855659
 H        -0.754551         2.729921         1.599183
 H        -1.734540         2.585080         0.158391
 H        -0.557955         0.621689         2.942198
 H        -1.450370        -0.788884         2.404845
 H        -4.228076         1.034902         2.748454
 H        -3.620875         2.680175         2.382978
 H        -5.101330         0.840121         0.494963
 H        -4.603831         2.606124         0.272553
 H        -2.881628        -0.663183         0.619577
