19
Iteration:  4876
 O         0.080183        -0.034373        -0.055785
 C        -1.026497         0.531329         0.666078
 C        -1.338804         2.055839         1.097757
 C        -2.491299         1.074913         1.822800
 C        -1.170105         0.328591         2.392657
 C        -3.846014         1.652852         1.984341
 C        -4.291093         1.632244         0.511319
 O        -3.300264         1.188526        -0.418841
 C        -2.498738         0.266954         0.468763
 H        -0.083507         0.138310        -1.003959
 H        -0.542923         2.443515         1.639290
 H        -1.685375         2.784975         0.307909
 H        -0.568088         1.008009         2.823545
 H        -1.208316        -0.785754         2.530342
 H        -4.403420         0.926969         2.531607
 H        -3.889963         2.659738         2.489404
 H        -5.068733         0.881033         0.342071
 H        -4.618713         2.665395         0.215478
 H        -2.931907        -0.743698         0.533020
