19
Iteration:  3262charge 0 multiplicity 1
 O        -0.056573         0.023670        -0.183128
 C        -0.961838         0.546068         0.761164
 C        -1.311490         2.048013         0.896726
 C        -2.358467         1.210660         1.796143
 C        -1.261915         0.238608         2.277137
 C        -3.803303         1.689838         2.057743
 C        -4.334111         1.657959         0.539469
 O        -3.276007         1.011279        -0.322193
 C        -2.501093         0.290037         0.532294
 H         0.817469         0.342824         0.147275
 H        -0.686474         2.655760         1.547045
 H        -1.684017         2.519147        -0.026007
 H        -0.513373         0.404516         3.128232
 H        -1.826643        -0.697701         2.457513
 H        -4.304645         0.966776         2.752685
 H        -3.993575         2.758128         2.343598
 H        -5.431681         1.274192         0.545272
 H        -4.292068         2.789162         0.333976
 H        -2.853258        -0.792067         0.655839
