19
Iteration:  2705
 O        -0.100538         0.158412        -0.207429
 C        -1.056617         0.604179         0.739017
 C        -1.336279         2.002491         1.015377
 C        -2.382430         1.147036         1.840027
 C        -1.153978         0.227058         2.255568
 C        -3.805467         1.763819         2.017794
 C        -4.092776         1.839425         0.444417
 O        -3.485576         0.743165        -0.294610
 C        -2.495929         0.231361         0.583918
 H         0.818287         0.221076         0.075416
 H        -0.526911         2.509559         1.626666
 H        -1.596821         2.759972         0.214263
 H        -0.484944         0.795770         2.936882
 H        -1.317911        -0.814939         2.399278
 H        -4.458758         0.998337         2.431223
 H        -3.768003         2.692847         2.599215
 H        -5.234184         1.569834         0.482235
 H        -3.870623         2.844360         0.027065
 H        -2.791323        -0.837985         0.618770
