19
Iteration:  2359
 O        -0.019023        -0.069463        -0.159221
 C        -0.892895         0.587092         0.723914
 C        -1.329472         2.081391         0.963923
 C        -2.381268         1.178753         1.769033
 C        -1.287626         0.235165         2.271635
 C        -3.782068         1.752285         1.992290
 C        -4.301989         1.655890         0.583539
 O        -3.353929         1.056345        -0.272561
 C        -2.512128         0.252366         0.494009
 H         0.753533         0.494022        -0.300151
 H        -0.635382         2.603947         1.677737
 H        -1.704431         2.707737         0.094500
 H        -0.559343         0.583666         2.977071
 H        -1.468638        -0.748902         2.433751
 H        -4.306045         1.017200         2.579474
 H        -3.995132         2.753190         2.462762
 H        -5.160595         0.941774         0.800447
 H        -4.594805         2.684557         0.219223
 H        -2.990074        -0.789387         0.516081
