19
Iteration:  1118
 O         0.245747         0.115009         0.001561
 C        -0.988336         0.486407         0.670054
 C        -1.358774         1.979457         1.055891
 C        -2.428484         1.073460         1.702869
 C        -1.392322         0.187676         2.241628
 C        -3.769694         1.700100         2.087791
 C        -4.210134         2.017116         0.521792
 O        -3.498144         0.914630        -0.354476
 C        -2.529724         0.297248         0.429879
 H        -0.023850        -0.744473        -0.408107
 H        -0.586394         2.361186         1.852688
 H        -1.542410         2.742224         0.314288
 H        -0.681947         0.634583         2.895024
 H        -1.522940        -0.880125         2.336569
 H        -4.306106         0.833530         2.561716
 H        -3.678626         2.504336         2.819537
 H        -5.300017         1.874758         0.274585
 H        -3.974365         3.092423         0.152231
 H        -2.693566        -0.831730         0.464340
