19
Iteration:  4342
 O         0.198576        -0.002278         0.025200
 C        -0.971483         0.568081         0.635516
 C        -1.176673         1.986088         1.056380
 C        -2.419764         1.260976         1.741154
 C        -1.253260         0.275445         2.157254
 C        -3.848844         1.719651         1.989641
 C        -4.519559         1.563262         0.577143
 O        -3.350260         1.085557        -0.353036
 C        -2.505188         0.391055         0.479287
 H        -0.265740        -0.761836        -0.332889
 H        -0.541457         2.377253         1.924532
 H        -1.450592         2.708786         0.336055
 H        -0.425041         0.405162         2.913284
 H        -1.706505        -0.782361         2.334335
 H        -4.312077         1.066202         2.728866
 H        -3.949103         2.804451         2.333986
 H        -5.224255         0.717997         0.674861
 H        -4.928117         2.542186         0.141375
 H        -2.899808        -0.617748         0.686548
