19
Iteration:  2312charge 0 multiplicity 1
 O         0.027019        -0.096546        -0.022593
 C        -0.951768         0.519618         0.711899
 C        -1.152743         2.062055         0.908119
 C        -2.391668         1.300248         1.688079
 C        -1.249393         0.281984         2.156962
 C        -3.749546         1.647614         2.072286
 C        -4.479289         1.529928         0.557604
 O        -3.442792         1.198183        -0.278508
 C        -2.474632         0.339987         0.458796
 H         0.820170         0.227849         0.490733
 H        -0.298897         2.577031         1.379147
 H        -1.511199         2.540616         0.036032
 H        -0.649455         0.500330         3.059489
 H        -1.748819        -0.665385         2.387987
 H        -4.246620         0.858568         2.752698
 H        -3.760791         2.607481         2.615994
 H        -5.248850         0.729824         0.790010
 H        -4.920164         2.519225         0.313652
 H        -2.874237        -0.736366         0.475477
