19
Iteration:  1815charge 0 multiplicity 1
 O         0.072208         0.090374        -0.093667
 C        -0.964527         0.516779         0.697891
 C        -1.394709         1.972694         1.136976
 C        -2.398434         1.129545         1.834439
 C        -1.142076         0.000806         2.129441
 C        -3.898356         1.771206         1.991474
 C        -4.281879         1.975423         0.480221
 O        -3.392680         1.082994        -0.353705
 C        -2.506180         0.203611         0.547521
 H         0.741741        -0.483588         0.313283
 H        -0.598034         2.332660         1.801929
 H        -1.702919         2.709594         0.402780
 H        -0.381450         0.160392         2.860743
 H        -1.475657        -0.962292         2.079699
 H        -4.560202         1.041317         2.497446
 H        -3.945600         2.717562         2.660149
 H        -5.325723         1.627332         0.241572
 H        -4.199460         3.031177         0.190495
 H        -2.870354        -0.826501         0.426457
