19
Iteration:  1954charge 0 multiplicity 1
 O         0.007672         0.182301        -0.189813
 C        -1.066880         0.380785         0.699761
 C        -1.211787         1.947895         1.128326
 C        -2.348323         1.231804         1.785481
 C        -1.380137         0.151833         2.170266
 C        -3.730278         1.788487         1.968208
 C        -4.337618         1.636713         0.530211
 O        -3.277665         1.084675        -0.309843
 C        -2.580686         0.309620         0.540758
 H         0.671824        -0.412533         0.137773
 H        -0.375937         2.303755         1.704397
 H        -1.363262         2.711470         0.360200
 H        -0.462694         0.517013         2.845595
 H        -1.768684        -0.763640         2.692837
 H        -4.386746         1.214952         2.620565
 H        -3.692238         2.782772         2.339296
 H        -5.183590         0.993149         0.397185
 H        -4.604953         2.669957         0.320929
 H        -3.123916        -0.690299         0.825546
