19
Iteration:  1962charge 0 multiplicity 1
 O         0.048203         0.145847        -0.153912
 C        -1.049450         0.486894         0.645982
 C        -1.214254         1.952943         1.127052
 C        -2.390651         1.235128         1.810622
 C        -1.318203         0.152112         2.168507
 C        -3.704247         1.778994         2.000079
 C        -4.338254         1.681328         0.519937
 O        -3.328409         1.077761        -0.349241
 C        -2.611014         0.273840         0.591209
 H         0.502174        -0.617151         0.206123
 H        -0.525381         2.217638         1.957914
 H        -1.403789         2.736264         0.293173
 H        -0.412816         0.354016         2.813898
 H        -1.670848        -0.938776         2.230821
 H        -4.321922         1.206030         2.737812
 H        -3.768102         2.819496         2.294429
 H        -5.203629         0.984495         0.414662
 H        -4.604123         2.620008        -0.030583
 H        -3.072792        -0.726693         0.900476
