19
Iteration:  3952
 O         0.039819        -0.053237        -0.028860
 C        -1.033805         0.565365         0.571428
 C        -1.295827         2.065309         1.000066
 C        -2.350526         1.223650         1.759222
 C        -1.237407         0.286650         2.294401
 C        -3.847964         1.496231         2.056842
 C        -4.336533         1.809881         0.535418
 O        -3.321659         0.976671        -0.324622
 C        -2.478229         0.328193         0.555426
 H         0.113226         0.458544        -0.844829
 H        -0.474359         2.515129         1.644760
 H        -1.683390         2.711158         0.214245
 H        -0.506432         0.876071         2.778705
 H        -1.686025        -0.705421         2.596859
 H        -4.482528         0.777518         2.593378
 H        -4.006682         2.519376         2.514134
 H        -5.395152         1.540581         0.203059
 H        -3.994566         2.922467         0.323296
 H        -2.884936        -0.745815         0.498732
