19
Iteration:   869charge 0 multiplicity 1
 O         0.139434         0.074318        -0.050742
 C        -0.969179         0.437920         0.700848
 C        -1.360099         1.976824         1.038356
 C        -2.413930         1.194996         1.784761
 C        -1.189620         0.140345         2.185880
 C        -3.868433         1.720217         1.889086
 C        -4.191073         1.908925         0.423839
 O        -3.475025         0.953959        -0.328706
 C        -2.580970         0.227742         0.717810
 H         0.644457         0.873430         0.056910
 H        -0.618217         2.507268         1.669138
 H        -1.679739         2.697179         0.238091
 H        -0.398287         0.413534         2.899347
 H        -1.421432        -1.009868         2.377530
 H        -4.589298         1.002531         2.380648
 H        -3.887721         2.686486         2.413528
 H        -5.267710         1.866339         0.310149
 H        -4.025082         3.002963         0.242678
 H        -2.987858        -0.828874         0.730481
