19
Iteration:  4729
 O         0.133883         0.137075        -0.107464
 C        -0.859413         0.526598         0.727376
 C        -1.305418         2.016310         1.082300
 C        -2.437310         1.177916         1.697371
 C        -1.318608         0.305612         2.286506
 C        -3.836187         1.563404         1.963718
 C        -4.263821         1.872619         0.595090
 O        -3.465039         0.903655        -0.374827
 C        -2.476158         0.290187         0.487873
 H         0.121454        -0.786280        -0.347494
 H        -0.606169         2.392969         1.887867
 H        -1.378575         2.702848         0.259723
 H        -0.569599         0.851940         3.070167
 H        -1.792354        -0.600758         2.644557
 H        -4.525238         0.783378         2.424628
 H        -4.086624         2.338422         2.647356
 H        -5.203412         1.443396         0.254739
 H        -4.327673         2.912574         0.203920
 H        -2.843344        -0.761066         0.718008
