19
Iteration:   237charge 0 multiplicity 1
 O         0.066181         0.240459        -0.035691
 C        -1.023440         0.499672         0.759042
 C        -1.208184         1.951061         1.011999
 C        -2.392604         1.179563         1.810675
 C        -1.266316         0.139220         2.285649
 C        -3.766830         1.699990         1.935040
 C        -4.183745         1.975894         0.356040
 O        -3.524653         0.859389        -0.301838
 C        -2.597532         0.230984         0.530136
 H         0.382602        -0.690584        -0.076857
 H        -0.336294         2.302650         1.644288
 H        -1.458872         2.667065         0.203617
 H        -0.463362         0.394904         3.060498
 H        -1.529088        -0.931352         2.527937
 H        -4.525056         0.965520         2.317698
 H        -3.896636         2.517338         2.618033
 H        -5.245480         1.831136         0.202615
 H        -3.881272         2.993439         0.026060
 H        -2.931421        -0.802370         0.748838
