19
Iteration:   797charge 0 multiplicity 1
 O         0.035653         0.045602        -0.070135
 C        -1.043378         0.554229         0.706280
 C        -1.242169         2.010411         0.948095
 C        -2.390128         1.193432         1.871895
 C        -1.199075         0.213706         2.243633
 C        -3.926987         1.652679         1.954189
 C        -4.288873         1.839358         0.438090
 O        -3.354544         0.989031        -0.350941
 C        -2.508116         0.249824         0.601122
 H         0.766063        -0.128165         0.479230
 H        -0.395871         2.346730         1.619936
 H        -1.491747         2.622600         0.127368
 H        -0.369782         0.585023         2.873117
 H        -1.462044        -0.778744         2.449256
 H        -4.457577         0.788467         2.336697
 H        -4.120063         2.597075         2.519043
 H        -5.390492         1.555144         0.363687
 H        -4.230274         2.923698         0.100334
 H        -3.041236        -0.672839         0.839796
