19
Iteration:   148
 O         0.060290        -0.094105        -0.069302
 C        -0.960409         0.556330         0.687166
 C        -1.281889         2.018164         0.976121
 C        -2.393792         1.210693         1.709144
 C        -1.435858         0.290293         2.277526
 C        -3.787891         1.716846         1.983382
 C        -4.289024         1.710419         0.592351
 O        -3.283212         1.072467        -0.341723
 C        -2.527180         0.273801         0.543714
 H         0.671311         0.562359        -0.497142
 H        -0.642279         2.469817         1.804852
 H        -1.720464         2.620409         0.116739
 H        -0.842552         0.553642         3.246824
 H        -1.623520        -0.845729         2.481630
 H        -4.260460         0.981811         2.713283
 H        -3.867177         2.704515         2.473173
 H        -5.155985         1.051788         0.445556
 H        -4.504641         2.686509         0.116197
 H        -2.849287        -0.802524         0.575160
