19
Iteration:  3914charge 0 multiplicity 1
 O         0.068171         0.100059        -0.112355
 C        -0.945397         0.549345         0.752612
 C        -1.282592         2.068404         1.114246
 C        -2.382513         1.155532         1.799677
 C        -1.165514         0.142969         2.252134
 C        -3.831168         1.702662         1.956523
 C        -4.284893         1.883432         0.435655
 O        -3.514616         0.801183        -0.290327
 C        -2.496689         0.299775         0.509464
 H        -0.141956         0.240989        -1.071582
 H        -0.756757         2.650681         1.865208
 H        -1.755327         2.718542         0.346782
 H        -0.409893         0.537259         3.002722
 H        -1.414736        -0.859699         2.581204
 H        -4.394002         0.994324         2.592214
 H        -3.793989         2.657781         2.462198
 H        -5.311104         1.890236         0.144109
 H        -4.041877         2.816820         0.050378
 H        -2.650584        -0.744892         0.763993
