19
Iteration:  3169
 O         0.020143         0.131890        -0.134995
 C        -0.961365         0.507756         0.733889
 C        -1.229504         1.938720         1.010077
 C        -2.420084         1.086665         1.782564
 C        -1.256308         0.213341         2.186403
 C        -3.731538         1.866145         2.028683
 C        -4.414694         1.609842         0.576323
 O        -3.381811         1.050541        -0.354229
 C        -2.553431         0.308331         0.524588
 H         0.863005         0.075396         0.352758
 H        -0.556289         2.438315         1.760370
 H        -1.396550         2.490388         0.073015
 H        -0.606443         0.583820         2.990180
 H        -1.655286        -0.830504         2.587797
 H        -4.392363         1.443530         2.789424
 H        -3.451879         2.916321         2.104265
 H        -5.180620         0.882755         0.575530
 H        -4.738801         2.477809         0.027614
 H        -2.777747        -0.806149         0.585247
