19
Iteration:   642
 O         0.154459        -0.003263         0.066561
 C        -1.030909         0.535165         0.720776
 C        -1.252100         2.030977         0.927948
 C        -2.339417         1.288524         1.751509
 C        -1.287238         0.156000         2.185118
 C        -3.850504         1.673052         1.934486
 C        -4.358632         1.672333         0.464076
 O        -3.324575         1.109342        -0.286049
 C        -2.553729         0.352091         0.592846
 H        -0.088088        -0.745492        -0.590756
 H        -0.426465         2.499441         1.477231
 H        -1.582439         2.734002         0.085183
 H        -0.533614         0.370140         2.889336
 H        -1.632769        -0.911882         2.283844
 H        -4.361601         0.854777         2.547952
 H        -4.227483         2.528799         2.561832
 H        -5.438242         1.326704         0.358460
 H        -4.374981         2.763757         0.299018
 H        -3.009488        -0.649816         0.819391
