19
Iteration:  1022charge 0 multiplicity 1
 O         0.044110         0.094287        -0.139899
 C        -1.038014         0.541060         0.742533
 C        -1.223788         1.995147         1.150060
 C        -2.433290         1.223387         1.815566
 C        -1.216620        -0.018195         2.251770
 C        -3.863618         1.873650         1.914115
 C        -4.349638         1.645707         0.500373
 O        -3.281983         1.109101        -0.394349
 C        -2.565972         0.343344         0.537115
 H         0.435152        -0.826099        -0.029274
 H        -0.461257         2.267138         1.968467
 H        -1.502373         2.729885         0.447370
 H        -0.358760         0.289362         2.905717
 H        -1.489057        -1.152557         2.300010
 H        -4.497646         1.416508         2.669753
 H        -3.814535         2.934018         2.094681
 H        -5.122087         0.863438         0.564340
 H        -4.643868         2.628714         0.091016
 H        -2.925806        -0.684841         0.726539
