19
Iteration:   105charge 0 multiplicity 1
 O         0.057980         0.053295        -0.067246
 C        -1.013789         0.528419         0.661997
 C        -1.208743         1.969457         1.137682
 C        -2.438912         1.253783         1.762654
 C        -1.209779         0.188541         2.171532
 C        -3.767175         1.922935         1.919937
 C        -4.423983         1.523296         0.493174
 O        -3.329494         1.045252        -0.357096
 C        -2.571448         0.339019         0.550437
 H         0.347826        -0.680604         0.464348
 H        -0.320049         2.104844         1.839068
 H        -1.277856         2.814470         0.382357
 H        -0.559528         0.407757         3.103819
 H        -1.460992        -0.957551         2.241040
 H        -4.409823         1.341676         2.672824
 H        -3.814936         2.996036         2.159540
 H        -5.242617         0.789405         0.650915
 H        -4.809043         2.479958         0.023119
 H        -2.979776        -0.612289         1.008488
