19
Iteration:  3806charge 0 multiplicity 1
 O        -0.097395        -0.115999        -0.048660
 C        -0.943325         0.681020         0.741061
 C        -1.211687         2.080503         1.007316
 C        -2.383102         1.236585         1.722802
 C        -1.255111         0.244932         2.214933
 C        -3.829773         1.512518         2.078358
 C        -4.376666         1.702912         0.547799
 O        -3.387369         1.046465        -0.345603
 C        -2.404366         0.421958         0.464842
 H         0.845294         0.147739        -0.136680
 H        -0.494722         2.798376         1.400092
 H        -1.535785         2.444695         0.013286
 H        -0.436957         0.682671         2.929041
 H        -1.435801        -0.807259         2.475318
 H        -4.317918         0.585899         2.511942
 H        -3.896197         2.336413         2.770173
 H        -5.307458         1.163889         0.484739
 H        -4.489064         2.737627         0.047133
 H        -2.811492        -0.585027         0.623314
