19
Iteration:   150charge 0 multiplicity 1
 O         0.067100        -0.085581        -0.054545
 C        -0.967900         0.523900         0.678667
 C        -1.288939         2.037686         0.967639
 C        -2.402036         1.211599         1.721211
 C        -1.423528         0.288401         2.262513
 C        -3.795602         1.716033         1.994334
 C        -4.276275         1.715218         0.584341
 O        -3.274110         1.080044        -0.334515
 C        -2.540309         0.264930         0.538917
 H         0.568640         0.559635        -0.522137
 H        -0.639334         2.484301         1.758296
 H        -1.674898         2.620131         0.124953
 H        -0.754600         0.548046         3.180481
 H        -1.642856        -0.795684         2.526454
 H        -4.318278         0.922990         2.672657
 H        -3.880864         2.662075         2.489588
 H        -5.142079         1.052153         0.460449
 H        -4.498680         2.725305         0.074059
 H        -2.843728        -0.828152         0.622365
