19
Iteration:   247
 O         0.115321         0.221870        -0.072786
 C        -1.001070         0.419776         0.708269
 C        -1.282223         1.855693         1.125455
 C        -2.428693         1.121966         1.771383
 C        -1.204647         0.170321         2.212266
 C        -3.847239         1.791699         1.911011
 C        -4.228157         1.960080         0.378846
 O        -3.487301         0.928849        -0.283929
 C        -2.537009         0.244033         0.648407
 H         0.502388        -0.643945        -0.139248
 H        -0.547768         2.445823         1.811766
 H        -1.570692         2.334785         0.141282
 H        -0.409742         0.780007         2.813358
 H        -1.589974        -0.856750         2.557319
 H        -4.436393         0.910598         2.285321
 H        -4.034570         2.752770         2.377299
 H        -5.304343         1.921134         0.198689
 H        -3.869345         2.927932         0.009754
 H        -2.920304        -0.787770         0.722672
