19
Iteration:  4096charge 0 multiplicity 1
 O        -0.035985        -0.061413        -0.023087
 C        -0.966413         0.543354         0.723396
 C        -1.237833         2.094777         1.078379
 C        -2.392468         1.214679         1.831594
 C        -1.176116         0.241383         2.285106
 C        -3.824650         1.678534         2.035975
 C        -4.391618         1.632386         0.516639
 O        -3.319041         1.144984        -0.423988
 C        -2.471401         0.244088         0.430658
 H         0.050016         0.076142        -0.969165
 H        -0.584088         2.731259         1.687089
 H        -1.654648         2.711627         0.266315
 H        -0.306279         0.596382         2.803479
 H        -1.431849        -0.799862         2.408834
 H        -4.442773         1.030043         2.651629
 H        -4.044468         2.650395         2.471196
 H        -5.284445         1.020200         0.451306
 H        -4.805320         2.614850         0.232451
 H        -2.762707        -0.800988         0.468348
