19
Iteration:   259charge 0 multiplicity 1
 O         0.192947         0.168020        -0.149420
 C        -0.950222         0.423668         0.727845
 C        -1.389760         1.906498         1.061921
 C        -2.471976         1.132900         1.833867
 C        -1.195306         0.155446         2.262186
 C        -3.931394         1.825650         1.919615
 C        -4.179473         1.919514         0.464248
 O        -3.401176         0.956846        -0.322879
 C        -2.606150         0.212714         0.552220
 H         0.246190        -0.794263        -0.045361
 H        -0.714758         2.476123         1.812343
 H        -1.694380         2.660092         0.311277
 H        -0.414742         0.670609         2.947518
 H        -1.267599        -0.876319         2.737607
 H        -4.741453         1.341480         2.532131
 H        -3.802418         2.749273         2.424763
 H        -5.205360         1.705406         0.225230
 H        -3.927778         2.926351         0.089051
 H        -2.931198        -0.816562         0.788749
