19
Iteration:  3980charge 0 multiplicity 1
 O         0.136213        -0.015130         0.083521
 C        -0.945199         0.546862         0.751412
 C        -1.265392         2.029830         0.824612
 C        -2.374399         1.084192         1.701185
 C        -1.176621         0.223848         2.282891
 C        -3.749114         1.639873         2.060683
 C        -4.330056         1.754918         0.573285
 O        -3.423091         1.146358        -0.328214
 C        -2.661570         0.261033         0.450418
 H         0.064976         0.579674        -0.672526
 H        -0.798746         2.670895         1.528553
 H        -1.758189         2.503490        -0.084443
 H        -0.514593         0.813880         3.029866
 H        -1.357578        -0.799287         2.493200
 H        -4.447080         0.892093         2.487409
 H        -3.970509         2.542180         2.590769
 H        -5.281592         1.181965         0.561797
 H        -4.696974         2.678379         0.163033
 H        -3.089321        -0.695101         0.226878
