19
Iteration:  3752
 O        -0.025001         0.129604        -0.127569
 C        -0.976182         0.496927         0.796258
 C        -1.287771         1.962307         1.065371
 C        -2.427086         1.104425         1.725654
 C        -1.219216         0.140470         2.290991
 C        -3.711785         1.928994         1.987539
 C        -4.363375         1.562570         0.578210
 O        -3.370171         1.037995        -0.382633
 C        -2.471516         0.255660         0.479770
 H         0.394302         0.973087        -0.297051
 H        -0.590060         2.373000         1.797068
 H        -1.546762         2.597512         0.210676
 H        -0.558776         0.471628         3.154548
 H        -1.471774        -0.884636         2.205902
 H        -4.486141         1.577731         2.722419
 H        -3.443764         2.964606         2.126235
 H        -5.303099         1.074880         0.672323
 H        -4.731381         2.493358         0.053568
 H        -2.934383        -0.787358         0.565119
