19
Iteration:  2987
 O         0.052632         0.224120        -0.198828
 C        -1.057991         0.490523         0.734773
 C        -1.386213         2.018626         1.080687
 C        -2.378370         1.186235         1.819996
 C        -1.226932         0.157319         2.213503
 C        -3.736128         1.755157         2.061839
 C        -4.219597         1.853820         0.479391
 O        -3.443077         0.857721        -0.393103
 C        -2.524641         0.178742         0.562783
 H         0.406056        -0.538737         0.272314
 H        -0.515891         2.505541         1.537489
 H        -1.792160         2.638500         0.289554
 H        -0.432432         0.597617         2.941644
 H        -1.637434        -0.792138         2.441292
 H        -4.420426         1.123184         2.692882
 H        -3.581955         2.765497         2.473417
 H        -5.272494         1.674080         0.421631
 H        -3.835686         2.843212         0.264863
 H        -2.795292        -0.854651         0.825349
