19
Iteration:  4497
 O         0.064417         0.071864        -0.048221
 C        -1.000961         0.546628         0.692230
 C        -1.370825         2.089292         0.935796
 C        -2.417871         1.117184         1.731550
 C        -1.286129         0.228129         2.248786
 C        -3.809108         1.618471         2.003338
 C        -4.278103         1.795293         0.575943
 O        -3.330262         0.909684        -0.324298
 C        -2.482711         0.255299         0.539682
 H         0.772030         0.741692        -0.062323
 H        -0.659211         2.774296         1.359791
 H        -1.774006         2.817325         0.123949
 H        -0.695414         0.712773         3.027459
 H        -1.346140        -0.930953         2.412374
 H        -4.595522         0.995512         2.462034
 H        -3.841385         2.591935         2.572246
 H        -5.326545         1.584004         0.299447
 H        -4.158451         2.845058         0.225788
 H        -2.850587        -0.695201         0.945712
