19
Iteration:  1477charge 0 multiplicity 1
 O        -0.056680         0.166756        -0.194669
 C        -0.973820         0.506677         0.740013
 C        -1.252772         1.989024         1.154373
 C        -2.473246         1.097664         1.868487
 C        -1.387045         0.089934         2.255695
 C        -3.844310         1.601687         2.013761
 C        -4.032314         1.930282         0.469421
 O        -3.339915         1.029660        -0.346128
 C        -2.517536         0.343982         0.463885
 H        -0.024467        -0.774349        -0.324950
 H        -0.515743         2.376233         1.869928
 H        -1.420166         2.772111         0.396125
 H        -0.574244         0.463525         2.999576
 H        -1.781008        -0.923160         2.579998
 H        -4.469729         0.859759         2.374344
 H        -3.905236         2.573746         2.516173
 H        -5.093275         1.611320         0.216644
 H        -3.897141         2.975084         0.242844
 H        -2.680918        -0.823603         0.327190
