19
Iteration:  3432charge 0 multiplicity 1
 O         0.085598         0.091666        -0.130869
 C        -0.945217         0.557528         0.772647
 C        -1.029373         1.944219         1.137964
 C        -2.361683         1.244870         1.691426
 C        -1.338989         0.167595         2.250964
 C        -3.803420         1.787143         1.886898
 C        -4.495659         1.440018         0.597231
 O        -3.430550         1.102799        -0.350434
 C        -2.498526         0.426034         0.556115
 H        -0.412731        -0.013607        -0.971303
 H        -0.391897         2.412657         1.919649
 H        -1.078659         2.506518         0.135696
 H        -0.574844         0.552138         2.909526
 H        -1.606070        -0.886016         2.543225
 H        -4.053545         1.457559         2.912281
 H        -3.850791         2.904061         1.920366
 H        -5.154254         0.541061         0.858120
 H        -5.257691         2.108022         0.060576
 H        -2.898627        -0.537933         0.827976
