19
Iteration:  1182
 O        -0.014688         0.160671        -0.213928
 C        -1.040655         0.507787         0.769659
 C        -1.287699         1.983103         1.124108
 C        -2.406908         1.116412         1.845820
 C        -1.261287         0.125080         2.318854
 C        -3.860802         1.678723         1.924943
 C        -4.225490         1.915522         0.477387
 O        -3.286424         1.025217        -0.364348
 C        -2.519753         0.236027         0.516338
 H         0.146110        -0.833174        -0.266323
 H        -0.574618         2.326381         1.938039
 H        -1.602928         2.687895         0.395686
 H        -0.525913         0.412245         3.026093
 H        -1.575762        -0.920724         2.421333
 H        -4.537726         0.995217         2.585680
 H        -3.747399         2.660299         2.517539
 H        -5.198411         1.776785         0.025114
 H        -3.821643         2.909121         0.307577
 H        -2.990876        -0.776825         0.705341
