19
Iteration:  2911
 O         0.034394        -0.087039         0.002372
 C        -0.950331         0.584002         0.656821
 C        -1.270806         2.031666         0.911345
 C        -2.302590         1.208745         1.665280
 C        -1.242132         0.229255         2.208814
 C        -3.782341         1.659056         2.026959
 C        -4.423328         1.732803         0.607954
 O        -3.407482         1.039263        -0.257267
 C        -2.522775         0.317226         0.519986
 H         0.541969         0.608279        -0.515988
 H        -0.593104         2.680593         1.486136
 H        -1.600592         2.668254         0.080968
 H        -0.569378         0.667265         3.057043
 H        -1.513022        -0.818214         2.288399
 H        -4.191476         0.717756         2.534116
 H        -3.963432         2.577124         2.634314
 H        -5.403475         1.359063         0.316853
 H        -4.542230         2.834007         0.398042
 H        -2.742321        -0.732259         0.770542
