19
Iteration:  2391
 O        -0.053844         0.158064        -0.261389
 C        -1.038586         0.472497         0.742673
 C        -1.263765         1.957181         1.075109
 C        -2.347959         1.264594         1.864777
 C        -1.216118         0.221798         2.299437
 C        -3.723585         1.748309         2.017648
 C        -4.224953         1.702343         0.443274
 O        -3.408180         0.906215        -0.339615
 C        -2.599807         0.194920         0.554131
 H         0.795355         0.658210        -0.100521
 H        -0.475901         2.472253         1.696953
 H        -1.553364         2.738226         0.319772
 H        -0.355654         0.654288         2.825857
 H        -1.434004        -0.701709         2.701202
 H        -4.332395         1.055987         2.637179
 H        -3.971993         2.812145         2.377144
 H        -5.326836         1.525877         0.412506
 H        -4.360178         2.762378         0.004332
 H        -3.098057        -0.798040         0.904779
