19
Iteration:  4585charge 0 multiplicity 1
 O         0.065472         0.007152        -0.047215
 C        -0.928625         0.579610         0.742500
 C        -1.308175         2.013074         1.008270
 C        -2.412604         1.103539         1.744357
 C        -1.295099         0.269093         2.265144
 C        -3.725011         1.742902         1.985533
 C        -4.384763         1.552521         0.543969
 O        -3.434486         1.157156        -0.401869
 C        -2.455379         0.302606         0.480898
 H         0.917915         0.254400         0.368877
 H        -0.789648         2.647420         1.686488
 H        -1.553701         2.603653         0.069061
 H        -0.526038         0.721232         2.922713
 H        -1.405637        -0.774655         2.585175
 H        -4.458936         1.184681         2.589447
 H        -3.831347         2.640365         2.572945
 H        -4.971228         0.678193         0.754651
 H        -5.027115         2.323041         0.178146
 H        -2.813041        -0.706775         0.337772
