19
Iteration:  1320
 O        -0.050451         0.068356        -0.241455
 C        -0.976973         0.520019         0.740402
 C        -1.243078         1.929868         1.168663
 C        -2.467744         1.187314         1.830879
 C        -1.286815         0.068135         2.253282
 C        -3.840124         1.831406         1.992023
 C        -4.329153         1.686516         0.411342
 O        -3.243280         1.164004        -0.317583
 C        -2.494658         0.316786         0.542905
 H         0.750551        -0.268975         0.153150
 H        -0.437507         2.204560         1.820627
 H        -1.400716         2.653457         0.315979
 H        -0.653934         0.500952         3.021616
 H        -1.718868        -0.932689         2.521825
 H        -4.356337         1.181055         2.632869
 H        -3.700093         2.828088         2.357550
 H        -5.028140         0.841054         0.563334
 H        -4.786418         2.579364        -0.110963
 H        -2.786481        -0.817876         0.522904
