19
Iteration:  3319
 O         0.046843         0.095894        -0.088978
 C        -0.938166         0.585411         0.667010
 C        -1.310280         2.039899         1.009572
 C        -2.422106         1.083527         1.830194
 C        -1.246494         0.143216         2.217092
 C        -3.806843         1.760920         2.003694
 C        -4.129917         1.852168         0.476005
 O        -3.603788         0.759601        -0.229313
 C        -2.461785         0.314423         0.483117
 H         0.577793         0.897463        -0.206672
 H        -0.577876         2.658695         1.553490
 H        -1.843022         2.664839         0.322816
 H        -0.492831         0.604003         2.885602
 H        -1.333095        -0.892587         2.364636
 H        -4.529495         1.162657         2.631403
 H        -3.865475         2.738569         2.500873
 H        -5.275564         1.964280         0.236220
 H        -3.747547         2.839709         0.000767
 H        -2.701089        -0.740686         0.700823
