19
Iteration:  2236charge 0 multiplicity 1
 O        -0.037746         0.031801        -0.240337
 C        -0.966941         0.515291         0.641276
 C        -1.337284         1.990035         1.073064
 C        -2.390132         1.170792         1.937491
 C        -1.231259         0.155821         2.306331
 C        -3.768216         1.943238         2.054908
 C        -4.344999         1.607481         0.413906
 O        -3.326816         0.978395        -0.346770
 C        -2.486088         0.321191         0.566774
 H         0.769313         0.547701        -0.236999
 H        -0.617207         2.525946         1.797748
 H        -1.754317         2.701856         0.350143
 H        -0.340238         0.410801         2.857577
 H        -1.573617        -0.786493         2.536439
 H        -4.643083         1.511110         2.664561
 H        -3.560858         2.977726         2.331088
 H        -5.041826         0.751345         0.719229
 H        -4.765914         2.485504        -0.116197
 H        -2.819818        -0.781955         0.694365
