19
Iteration:  4365charge 0 multiplicity 1
 O         0.053457         0.026309        -0.001536
 C        -1.003499         0.553732         0.750429
 C        -1.320200         2.149124         0.983041
 C        -2.380687         1.186349         1.731520
 C        -1.290162         0.180205         2.361004
 C        -3.706918         1.691643         2.037610
 C        -4.355220         1.573197         0.504748
 O        -3.329698         1.085789        -0.405624
 C        -2.467807         0.333392         0.431366
 H        -0.447950        -0.284092        -0.793499
 H        -0.610100         2.744307         1.594912
 H        -1.792821         2.632611         0.121999
 H        -0.582283         0.398236         3.150865
 H        -1.744780        -0.908130         2.503864
 H        -4.226911         1.128210         2.806556
 H        -3.652875         2.791237         2.293756
 H        -5.100209         0.734885         0.521196
 H        -4.745141         2.610673         0.317372
 H        -2.851526        -0.690464         0.536648
