19
Iteration:  2031
 O         0.103030        -0.014418         0.061490
 C        -1.044771         0.484745         0.651867
 C        -1.274690         1.939357         0.854710
 C        -2.379490         1.248560         1.769713
 C        -1.205154         0.213513         2.164605
 C        -3.840423         1.557225         2.025639
 C        -4.301571         1.844376         0.584448
 O        -3.418429         1.076694        -0.315649
 C        -2.546299         0.343498         0.529455
 H         0.280091         0.843833        -0.397796
 H        -0.526920         2.422123         1.463986
 H        -1.610668         2.401004        -0.045446
 H        -0.267705         0.527488         2.840013
 H        -1.615196        -0.789871         2.500966
 H        -4.295802         0.716176         2.510221
 H        -3.989315         2.417931         2.632535
 H        -5.350877         1.668072         0.468290
 H        -4.093593         2.914117         0.481196
 H        -2.853907        -0.739202         0.784037
