19
Iteration:  1633charge 0 multiplicity 1
 O        -0.040079        -0.009261        -0.188314
 C        -0.943733         0.607145         0.767772
 C        -1.229779         2.002695         1.127017
 C        -2.485149         1.090912         1.753127
 C        -1.350445         0.072798         2.219774
 C        -3.776989         1.686967         2.077687
 C        -4.281538         1.640569         0.498336
 O        -3.204878         1.276042        -0.344783
 C        -2.487856         0.414204         0.476643
 H        -0.366466        -0.951334        -0.023262
 H        -0.638712         2.427553         1.964189
 H        -1.518507         2.799144         0.439183
 H        -0.945541         0.439397         3.183428
 H        -1.484264        -1.094451         2.221846
 H        -4.532657         1.195227         2.647478
 H        -3.832799         2.709042         2.401802
 H        -5.151744         0.931525         0.511755
 H        -4.580636         2.630301         0.044141
 H        -2.830506        -0.568820         0.224636
