19
Iteration:   720
 O         0.082967         0.001617        -0.007911
 C        -1.054251         0.470372         0.732471
 C        -1.108478         1.934794         1.081232
 C        -2.356040         1.354169         1.731656
 C        -1.281653         0.116846         2.188284
 C        -3.824485         1.882021         1.937302
 C        -4.405037         1.495105         0.490364
 O        -3.329385         1.100227        -0.376446
 C        -2.622730         0.394193         0.550349
 H         0.790894         0.691533        -0.019515
 H        -0.379812         2.335482         1.831969
 H        -1.380736         2.542147         0.228166
 H        -0.547980         0.283419         2.970542
 H        -1.806041        -0.837996         2.271484
 H        -4.290705         1.259082         2.716828
 H        -3.920577         2.969530         2.178617
 H        -5.033246         0.612245         0.854299
 H        -5.021512         2.296300         0.033841
 H        -3.110857        -0.591494         0.674816
