19
Iteration:  2227charge 0 multiplicity 1
 O        -0.023544         0.031385        -0.244985
 C        -1.010574         0.564035         0.707622
 C        -1.287104         1.961567         1.063832
 C        -2.407602         1.179725         1.799754
 C        -1.329549         0.189694         2.307470
 C        -3.696418         1.897624         2.090534
 C        -4.346613         1.589968         0.471759
 O        -3.278392         0.966112        -0.343578
 C        -2.515354         0.299207         0.573847
 H         0.690579         0.669507        -0.344369
 H        -0.534185         2.535389         1.730596
 H        -1.719948         2.625983         0.311520
 H        -0.512793         0.688930         2.850313
 H        -1.688083        -0.728886         2.607584
 H        -4.247260         1.320179         2.843036
 H        -3.688816         2.952733         2.380923
 H        -5.244971         0.998233         0.547603
 H        -4.768542         2.473902        -0.092424
 H        -2.813826        -0.728340         0.535231
