19
Iteration:  3013
 O         0.082600         0.251879        -0.216948
 C        -0.962735         0.481643         0.718635
 C        -1.202039         1.903690         1.011326
 C        -2.412962         1.123007         1.746848
 C        -1.271459         0.152341         2.258278
 C        -3.771306         1.768575         1.945499
 C        -4.271738         1.845225         0.484873
 O        -3.532313         0.901112        -0.221888
 C        -2.543263         0.255422         0.567880
 H         0.722871        -0.052717         0.429404
 H        -0.383313         2.339443         1.666013
 H        -1.563734         2.541588         0.171555
 H        -0.853548         0.788802         3.102179
 H        -1.514270        -0.913192         2.569556
 H        -4.487037         1.070862         2.481560
 H        -3.853030         2.722070         2.587852
 H        -5.348816         1.637370         0.494347
 H        -4.151869         2.876205         0.127007
 H        -2.628701        -0.860761         0.717982
