19
Iteration:  4088charge 0 multiplicity 1
 O        -0.044643        -0.072113        -0.031025
 C        -1.007374         0.570217         0.730872
 C        -1.342059         2.087862         1.032012
 C        -2.414307         1.210157         1.812750
 C        -1.206374         0.189342         2.247371
 C        -3.794650         1.681660         2.019293
 C        -4.340432         1.585007         0.534107
 O        -3.252696         1.187791        -0.358519
 C        -2.434464         0.289730         0.481857
 H         0.004651         0.309436        -0.939686
 H        -0.683399         2.749025         1.534394
 H        -1.818863         2.472456         0.067940
 H        -0.312748         0.561317         2.871969
 H        -1.619434        -0.771734         2.419353
 H        -4.430112         1.057656         2.690207
 H        -3.924817         2.717503         2.263787
 H        -5.051874         0.774300         0.519105
 H        -4.492281         2.590737         0.141451
 H        -2.910098        -0.720557         0.507916
