19
Iteration:  3533
 O         0.031854         0.010719         0.032384
 C        -0.983167         0.554910         0.738760
 C        -1.284933         2.083713         0.886130
 C        -2.292779         1.266184         1.684423
 C        -1.245689         0.283337         2.264187
 C        -3.756848         1.505872         1.991814
 C        -4.318304         1.826061         0.612976
 O        -3.492393         0.940928        -0.355216
 C        -2.534392         0.271510         0.517560
 H         0.287480         0.502090        -0.754109
 H        -0.598765         2.753271         1.522395
 H        -1.655651         2.557564        -0.037010
 H        -0.333940         0.535472         2.875890
 H        -1.443117        -0.765721         2.485670
 H        -4.114817         0.536439         2.370502
 H        -4.042615         2.301724         2.709429
 H        -5.367435         1.623421         0.395641
 H        -3.905703         2.855229         0.555427
 H        -2.946083        -0.672062         0.828986
