19
Iteration:  3502
 O         0.158103        -0.066190         0.005461
 C        -0.965287         0.542906         0.591814
 C        -1.211665         2.021369         0.947209
 C        -2.352814         1.203817         1.748795
 C        -1.285093         0.259951         2.281739
 C        -3.824062         1.704535         2.028097
 C        -4.501392         1.586500         0.630101
 O        -3.416737         1.129213        -0.357580
 C        -2.480190         0.341764         0.507807
 H         0.416879         0.213021        -0.902492
 H        -0.470717         2.589614         1.546292
 H        -1.716984         2.650768         0.242539
 H        -0.280877         0.772667         2.706678
 H        -1.361227        -0.802987         2.608610
 H        -4.361217         1.033891         2.709157
 H        -3.890689         2.673881         2.515315
 H        -5.397629         0.956853         0.499682
 H        -4.890067         2.563080         0.320404
 H        -2.937477        -0.633305         0.698290
