19
Iteration:  3475
 O         0.022994        -0.009084         0.031916
 C        -0.930732         0.561310         0.716821
 C        -1.293525         2.068585         1.050554
 C        -2.419104         1.143650         1.719453
 C        -1.289311         0.172512         2.135252
 C        -3.676931         1.916862         1.976613
 C        -4.356588         1.398811         0.655497
 O        -3.380348         1.150256        -0.363396
 C        -2.463818         0.329065         0.481307
 H        -0.105355         0.122288        -0.937544
 H        -0.682396         2.623746         1.798319
 H        -1.746809         2.735159         0.248084
 H        -0.571841         0.606656         2.750667
 H        -1.490283        -0.908731         2.205151
 H        -4.439816         1.624097         2.734771
 H        -3.439780         2.991590         2.163358
 H        -4.971576         0.493722         0.771055
 H        -5.254377         2.014417         0.338781
 H        -2.890715        -0.691255         0.545005
