19
Iteration:  2612charge 0 multiplicity 1
 O         0.106155        -0.107857        -0.039000
 C        -0.949802         0.558598         0.654258
 C        -1.245204         2.058512         0.914858
 C        -2.383583         1.202254         1.677170
 C        -1.167486         0.254779         2.215091
 C        -3.866099         1.702107         2.075500
 C        -4.528519         1.662062         0.572780
 O        -3.450997         1.115995        -0.236366
 C        -2.464288         0.254822         0.470017
 H         0.846810         0.549181        -0.065326
 H        -0.376369         2.432447         1.540700
 H        -1.540787         2.730416         0.127455
 H        -0.392935         0.622522         2.892108
 H        -1.400948        -0.812172         2.481690
 H        -4.343112         1.107185         2.924244
 H        -3.754791         2.805712         2.290531
 H        -5.425321         1.075039         0.544395
 H        -4.494734         2.731079         0.220652
 H        -2.824394        -0.737490         0.627290
