19
Iteration:  3648charge 0 multiplicity 1
 O         0.020643        -0.053036         0.059874
 C        -1.012366         0.577459         0.657739
 C        -1.312208         2.113057         1.041552
 C        -2.330799         1.188855         1.747474
 C        -1.115075         0.292485         2.217844
 C        -3.796091         1.531446         1.972583
 C        -4.421275         1.680771         0.525815
 O        -3.365124         1.142156        -0.314705
 C        -2.518185         0.326745         0.467189
 H        -0.321061        -0.435276        -0.771667
 H        -0.469915         2.420239         1.640938
 H        -1.624048         2.791658         0.201771
 H        -0.337948         0.771647         2.834949
 H        -1.155714        -0.851972         2.452964
 H        -4.330419         0.851435         2.634754
 H        -3.880184         2.537386         2.429134
 H        -5.240603         0.954701         0.403601
 H        -4.630057         2.679437         0.253096
 H        -2.901855        -0.711529         0.576202
