19
Iteration:  1329
 O        -0.098186         0.069064        -0.234711
 C        -0.967477         0.513006         0.728544
 C        -1.185710         1.975126         1.174878
 C        -2.407629         1.169761         1.799057
 C        -1.351988         0.123543         2.287948
 C        -3.824985         1.821235         2.008123
 C        -4.267557         1.607139         0.474302
 O        -3.226393         1.150201        -0.370432
 C        -2.518094         0.311507         0.510698
 H         0.657435        -0.415349         0.105729
 H        -0.554410         2.397969         1.972948
 H        -1.492484         2.799159         0.419184
 H        -0.583329         0.385854         3.043606
 H        -1.669444        -0.906145         2.381212
 H        -4.639607         1.290438         2.596242
 H        -3.946117         2.820533         2.411685
 H        -5.099095         0.943193         0.440988
 H        -4.693723         2.607874         0.138918
 H        -2.979070        -0.723527         0.495256
