19
Iteration:  1325
 O        -0.083946         0.070958        -0.236263
 C        -0.951322         0.523748         0.725655
 C        -1.206750         1.956296         1.162901
 C        -2.443293         1.190177         1.810565
 C        -1.322573         0.094913         2.277503
 C        -3.833065         1.830271         2.003610
 C        -4.276069         1.642773         0.425700
 O        -3.234724         1.154106        -0.339325
 C        -2.520189         0.295332         0.521220
 H         0.719988        -0.379791         0.097745
 H        -0.480159         2.283799         1.957216
 H        -1.460750         2.697521         0.429007
 H        -0.604521         0.455693         3.044118
 H        -1.713417        -0.918940         2.432938
 H        -4.600240         1.255614         2.643116
 H        -3.894666         2.862988         2.463210
 H        -5.085280         0.855414         0.537045
 H        -4.752082         2.564362         0.130293
 H        -2.867178        -0.713995         0.473990
