19
Iteration:  1374
 O         0.096104        -0.134943        -0.081036
 C        -1.001058         0.522758         0.686380
 C        -1.141228         2.030647         1.070391
 C        -2.483903         1.163105         1.786390
 C        -1.267977         0.156590         2.167795
 C        -3.918232         1.631175         1.967023
 C        -4.411724         1.713647         0.586378
 O        -3.297652         1.231191        -0.332846
 C        -2.531058         0.433324         0.444459
 H         0.881717         0.027176         0.493713
 H        -0.427477         2.467010         1.783642
 H        -1.333911         2.667065         0.164468
 H        -0.557296         0.476295         2.902005
 H        -1.486306        -0.929972         2.295595
 H        -4.451449         0.997147         2.673068
 H        -3.887203         2.540393         2.536462
 H        -5.303981         1.177180         0.542097
 H        -4.624327         2.734769         0.240123
 H        -3.001109        -0.552627         0.612410
