19
Iteration:   753charge 0 multiplicity 1
 O         0.003076        -0.181350        -0.103074
 C        -0.916260         0.609782         0.730189
 C        -1.249069         2.041666         1.074364
 C        -2.428709         1.147903         1.657407
 C        -1.357712         0.332313         2.411119
 C        -3.794957         1.703623         2.006125
 C        -4.333357         1.586500         0.603340
 O        -3.342700         1.154264        -0.396970
 C        -2.468550         0.374070         0.392767
 H         0.906254        -0.045303         0.063612
 H        -0.633210         2.682090         1.787321
 H        -1.635796         2.575294         0.234270
 H        -0.808068         0.759084         3.276928
 H        -1.705534        -0.653028         2.572878
 H        -4.404969         1.072802         2.644849
 H        -3.718828         2.789184         2.343062
 H        -5.165881         0.861656         0.355096
 H        -4.671301         2.502849         0.081356
 H        -2.623755        -0.705674         0.267928
