19
Iteration:  3857
 O         0.116275         0.140845        -0.062925
 C        -0.964320         0.591284         0.683574
 C        -1.324617         1.951975         0.865297
 C        -2.409737         1.111910         1.831570
 C        -1.179097         0.179144         2.245608
 C        -3.827518         1.631529         2.005446
 C        -4.254886         1.875459         0.561628
 O        -3.494747         0.984854        -0.327835
 C        -2.524116         0.278197         0.534543
 H         0.602962        -0.590776         0.307027
 H        -0.690314         2.606526         1.524592
 H        -1.847123         2.510529         0.124614
 H        -0.622322         0.709698         2.970858
 H        -1.513866        -0.886345         2.441669
 H        -4.409620         0.933430         2.599007
 H        -3.922333         2.631627         2.490752
 H        -5.293325         1.504412         0.524221
 H        -4.023615         2.844815         0.234426
 H        -2.891338        -0.748653         0.434782
