19
Iteration:  1350
 O        -0.121944        -0.010202        -0.162519
 C        -0.981877         0.559760         0.742169
 C        -1.255227         2.042147         1.207532
 C        -2.355711         1.254978         1.779961
 C        -1.360141         0.085875         2.263444
 C        -3.715153         1.626514         1.981968
 C        -4.370883         1.660723         0.482675
 O        -3.240658         1.138758        -0.438334
 C        -2.469797         0.420227         0.462082
 H         0.593055        -0.556544         0.284911
 H        -0.404357         2.396894         1.808797
 H        -1.513337         2.725342         0.292997
 H        -0.709613         0.507713         3.048340
 H        -1.841517        -0.808026         2.564471
 H        -4.198592         1.071359         2.901891
 H        -3.706315         2.638031         2.460196
 H        -5.187106         1.022329         0.516056
 H        -4.769291         2.698413         0.311283
 H        -2.833810        -0.591726         0.508020
