19
Iteration:  2724charge 0 multiplicity 1
 O         0.029962         0.114709        -0.256322
 C        -0.970627         0.570842         0.666404
 C        -1.357288         2.035837         1.002585
 C        -2.361845         1.163959         1.751586
 C        -1.302614         0.232791         2.289859
 C        -3.738960         1.691632         1.975967
 C        -4.253762         1.822514         0.529446
 O        -3.431689         0.833174        -0.212377
 C        -2.534922         0.194514         0.629449
 H         0.906747         0.362553         0.122112
 H        -0.745353         2.826841         1.589430
 H        -1.721228         2.676430         0.127779
 H        -0.556306         0.614471         2.937443
 H        -1.834837        -0.718314         2.597327
 H        -4.320955         1.026974         2.752420
 H        -3.736514         2.755658         2.277143
 H        -5.313201         1.814709         0.218230
 H        -3.808779         2.790561         0.092942
 H        -2.685613        -0.915398         0.772595
