19
Iteration:   341charge 0 multiplicity 1
 O         0.104548        -0.049372         0.051844
 C        -0.957213         0.517675         0.747776
 C        -1.120109         2.039139         1.049005
 C        -2.341475         1.327460         1.756165
 C        -1.253118         0.183750         2.222258
 C        -3.883691         1.698183         1.926605
 C        -4.433972         1.638388         0.551059
 O        -3.400315         1.146642        -0.397730
 C        -2.543022         0.326266         0.452566
 H         0.024482        -0.872059        -0.522289
 H        -0.530140         2.514656         1.770280
 H        -1.342614         2.664672         0.157379
 H        -0.553911         0.503578         2.929199
 H        -1.686860        -0.731908         2.467035
 H        -4.271614         0.860824         2.477277
 H        -3.991677         2.602156         2.559445
 H        -5.418683         1.106909         0.534612
 H        -4.634831         2.699186         0.314139
 H        -2.942205        -0.708501         0.517471
