19
Iteration:  4333charge 0 multiplicity 1
 O         0.234529         0.005402         0.008486
 C        -0.996251         0.540514         0.652103
 C        -1.138269         2.052904         1.059734
 C        -2.348284         1.251979         1.712428
 C        -1.216550         0.226240         2.247258
 C        -3.891514         1.726906         2.027071
 C        -4.561837         1.555361         0.538254
 O        -3.414407         1.109567        -0.388715
 C        -2.560086         0.375777         0.476827
 H         0.126913        -0.940379        -0.164406
 H        -0.309459         2.301281         1.747941
 H        -1.221329         2.910129         0.377172
 H        -0.342646         0.387060         2.865725
 H        -1.675161        -0.829459         2.452453
 H        -4.294054         1.120778         2.806558
 H        -3.856518         2.828864         2.269660
 H        -5.390310         0.797245         0.334142
 H        -5.156125         2.474081         0.325324
 H        -2.921752        -0.676976         0.636941
