19
Iteration:  2336charge 0 multiplicity 1
 O         0.048299        -0.187609        -0.006015
 C        -0.988959         0.553925         0.578986
 C        -1.295308         2.068602         0.977918
 C        -2.379886         1.189791         1.744910
 C        -1.179120         0.279909         2.221201
 C        -3.763339         1.652154         2.094138
 C        -4.481212         1.579416         0.597566
 O        -3.363735         1.139650        -0.398624
 C        -2.491863         0.427255         0.454462
 H         0.734286         0.498493         0.090588
 H        -0.735588         2.632347         1.783850
 H        -1.633823         2.711504         0.151536
 H        -0.344153         0.745678         2.756832
 H        -1.314012        -0.653393         2.595415
 H        -4.294159         1.050274         2.862167
 H        -3.725941         2.721422         2.465009
 H        -5.353324         0.868183         0.784720
 H        -4.724736         2.667882         0.397785
 H        -3.083289        -0.538200         0.681243
