19
Iteration:  4788charge 0 multiplicity 1
 O         0.275156         0.214453         0.004533
 C        -0.935130         0.598976         0.726397
 C        -1.419913         2.035577         0.959968
 C        -2.452892         0.999302         1.752211
 C        -1.278831         0.190163         2.205606
 C        -3.801410         1.679085         2.055110
 C        -4.205403         1.893703         0.483559
 O        -3.518837         0.933382        -0.351507
 C        -2.613024         0.173003         0.489584
 H         0.513910        -0.674946         0.316589
 H        -0.785324         2.553693         1.615687
 H        -1.669596         2.709725         0.110484
 H        -0.577587         0.645567         2.891322
 H        -1.576208        -0.918663         2.554111
 H        -4.374277         0.958758         2.594908
 H        -3.610395         2.704187         2.448413
 H        -5.247938         1.665999         0.267055
 H        -3.892487         2.977309         0.403089
 H        -2.881499        -0.865633         0.413392
