19
Iteration:   917
 O         0.025190        -0.116459        -0.001617
 C        -0.952816         0.546499         0.736504
 C        -1.315405         2.106112         1.084426
 C        -2.359804         1.189826         1.723510
 C        -1.261721         0.242475         2.284779
 C        -3.780903         1.627710         2.005540
 C        -4.367387         1.712113         0.523066
 O        -3.253297         1.128994        -0.398196
 C        -2.571908         0.295862         0.429405
 H        -0.070396         0.016228        -1.004635
 H        -0.650858         2.574047         1.820122
 H        -1.518292         2.805623         0.306555
 H        -0.621263         0.669526         3.067355
 H        -1.513496        -0.733569         2.535860
 H        -4.370833         0.869510         2.552979
 H        -3.948243         2.641869         2.491986
 H        -5.347420         1.212680         0.392244
 H        -4.509438         2.707047         0.161776
 H        -2.950172        -0.656094         0.761615
