19
Iteration:  3919
 O         0.026896         0.066787        -0.086933
 C        -0.911451         0.565726         0.755544
 C        -1.310981         2.044036         1.139057
 C        -2.352916         1.196365         1.766881
 C        -1.151854         0.142026         2.212699
 C        -3.817270         1.662867         1.958590
 C        -4.284700         1.895008         0.430000
 O        -3.522013         0.799239        -0.319003
 C        -2.485850         0.340690         0.556042
 H        -0.292215         0.400589        -0.938950
 H        -0.780650         2.726565         1.843778
 H        -1.673043         2.672003         0.309238
 H        -0.497064         0.551147         2.976275
 H        -1.381930        -0.894597         2.552874
 H        -4.412297         0.922918         2.513622
 H        -3.882209         2.661576         2.457722
 H        -5.417230         1.729657         0.332521
 H        -3.926585         2.917419        -0.019390
 H        -2.513150        -0.757674         0.779023
