19
Iteration:  4119charge 0 multiplicity 1
 O         0.140256        -0.028475        -0.011072
 C        -0.907970         0.542284         0.681054
 C        -1.177491         2.035867         1.136694
 C        -2.449852         1.253000         1.697096
 C        -1.285853         0.230648         2.173609
 C        -3.776597         1.596419         1.958699
 C        -4.373230         1.689637         0.539055
 O        -3.475958         1.012205        -0.309590
 C        -2.520762         0.410713         0.510664
 H         0.102536        -0.117385        -0.977548
 H        -0.469149         2.535968         1.776072
 H        -1.400599         2.749274         0.283672
 H        -0.576431         0.707855         2.884399
 H        -1.661584        -0.710990         2.392578
 H        -4.374363         0.905078         2.545383
 H        -4.018188         2.503710         2.425183
 H        -5.403905         1.324829         0.479279
 H        -4.481896         2.746161         0.204221
 H        -2.917281        -0.532873         0.892972
