19
Iteration:  2549charge 0 multiplicity 1
 O        -0.052192         0.040609        -0.243466
 C        -0.920398         0.447641         0.720687
 C        -1.191885         1.986304         1.071750
 C        -2.377409         1.247962         1.768314
 C        -1.287402         0.162637         2.330005
 C        -3.760704         1.891483         1.894287
 C        -4.421615         1.421734         0.587510
 O        -3.404197         1.161366        -0.287626
 C        -2.460206         0.360529         0.559075
 H         0.804006         0.507785        -0.373380
 H        -0.276247         2.444616         1.631079
 H        -1.504570         2.597960         0.210375
 H        -0.537876         0.476712         3.006707
 H        -1.450893        -0.918621         2.566909
 H        -4.404282         1.613456         2.763848
 H        -3.715732         2.947872         2.059508
 H        -5.019260         0.396278         0.599340
 H        -5.146857         2.097741         0.073600
 H        -2.893021        -0.653296         0.911058
