19
Iteration:  4332
 O         0.231518         0.007181         0.006289
 C        -0.990474         0.535627         0.659251
 C        -1.136761         2.066272         1.057189
 C        -2.338861         1.251270         1.713351
 C        -1.221319         0.213673         2.252315
 C        -3.889871         1.725922         2.024125
 C        -4.562211         1.547513         0.537582
 O        -3.427836         1.117222        -0.393807
 C        -2.566562         0.371806         0.477735
 H         0.200263        -0.945957        -0.142916
 H        -0.259899         2.303864         1.741574
 H        -1.205531         2.887479         0.378479
 H        -0.324219         0.447985         2.870561
 H        -1.672963        -0.852556         2.462112
 H        -4.307964         1.138552         2.822293
 H        -3.858793         2.833924         2.288721
 H        -5.379583         0.798291         0.322055
 H        -5.137102         2.495989         0.300757
 H        -2.913889        -0.674969         0.629741
