19
Iteration:  1135charge 0 multiplicity 1
 O         0.131740         0.212318        -0.046127
 C        -0.916562         0.536557         0.736429
 C        -1.287893         1.984032         1.112607
 C        -2.461728         1.081981         1.749979
 C        -1.344673         0.077743         2.230401
 C        -3.748860         1.713925         1.961704
 C        -4.099502         1.913350         0.508977
 O        -3.533125         0.946815        -0.331600
 C        -2.563941         0.240375         0.465377
 H        -0.034620        -0.642947        -0.478056
 H        -0.739121         2.580795         1.749878
 H        -1.689466         2.494010         0.195799
 H        -0.661896         0.356989         3.107424
 H        -1.769491        -0.928352         2.474221
 H        -4.583002         1.269514         2.485535
 H        -3.736652         2.793942         2.286309
 H        -5.169465         1.867581         0.416863
 H        -3.697566         2.829456         0.199628
 H        -2.894381        -0.784006         0.556955
