19
Iteration:  1322
 O        -0.067858         0.070519        -0.239823
 C        -0.960172         0.524967         0.732165
 C        -1.226255         1.943329         1.163342
 C        -2.461175         1.192718         1.822463
 C        -1.299573         0.080627         2.265469
 C        -3.841574         1.829647         2.001211
 C        -4.300850         1.670987         0.410383
 O        -3.240016         1.159259        -0.324418
 C        -2.507787         0.304566         0.532591
 H         0.763081        -0.337052         0.128889
 H        -0.460783         2.217005         1.876704
 H        -1.421165         2.643513         0.395913
 H        -0.645849         0.483598         3.020351
 H        -1.737220        -0.952775         2.488313
 H        -4.437600         1.243868         2.610945
 H        -3.792148         2.845897         2.416993
 H        -5.063772         0.815884         0.570637
 H        -4.771605         2.558243         0.020529
 H        -2.816801        -0.789197         0.493640
