19
Iteration:  4008charge 0 multiplicity 1
 O         0.293781        -0.018536         0.115864
 C        -0.980051         0.500480         0.597430
 C        -1.321007         2.024265         1.041677
 C        -2.380482         1.216928         1.699643
 C        -1.327003         0.193400         2.085410
 C        -3.747101         1.791121         2.061410
 C        -4.367358         1.660577         0.651591
 O        -3.491705         1.022264        -0.348300
 C        -2.517739         0.321193         0.447394
 H         0.253054         0.310604        -0.804481
 H        -0.716718         2.461323         1.886126
 H        -1.721986         2.742239         0.356919
 H        -0.565009         0.436382         2.779105
 H        -1.605519        -0.886796         2.287765
 H        -4.395183         1.311891         2.794463
 H        -3.798709         2.886210         2.254116
 H        -5.385503         1.214707         0.648121
 H        -4.718102         2.629165         0.192858
 H        -2.958840        -0.708522         0.449166
