19
Iteration:  2494
 O         0.032604        -0.050029        -0.099244
 C        -0.967207         0.587413         0.655505
 C        -1.317885         2.075668         0.945471
 C        -2.345728         1.213177         1.730107
 C        -1.273577         0.277598         2.254007
 C        -3.698047         1.668501         2.100711
 C        -4.428672         1.696148         0.637221
 O        -3.389279         1.049381        -0.347652
 C        -2.532554         0.301992         0.463378
 H         0.833518        -0.173687         0.423837
 H        -0.627464         2.825041         1.493144
 H        -1.715287         2.496513         0.013455
 H        -0.456885         0.472494         2.939229
 H        -1.702259        -0.776366         2.398017
 H        -4.093004         0.811186         2.667096
 H        -3.702224         2.644668         2.561743
 H        -5.241446         0.945519         0.473185
 H        -4.538636         2.716927         0.220965
 H        -2.767311        -0.836594         0.652461
