19
Iteration:  2461
 O         0.086226         0.007364        -0.082245
 C        -0.968484         0.535845         0.639339
 C        -1.283333         1.988805         0.885863
 C        -2.358937         1.163050         1.734280
 C        -1.163998         0.360333         2.227695
 C        -3.849793         1.580382         2.023952
 C        -4.290282         1.883694         0.566691
 O        -3.484243         1.001803        -0.219574
 C        -2.624952         0.210748         0.537045
 H         0.850714         0.237432         0.505079
 H        -0.519249         2.546319         1.529052
 H        -1.446764         2.543907        -0.050840
 H        -0.314607         0.835397         2.661324
 H        -1.291628        -0.737579         2.490810
 H        -4.301378         0.632012         2.368122
 H        -3.975886         2.290513         2.816868
 H        -5.364070         1.688079         0.327231
 H        -4.236276         2.964929         0.383889
 H        -3.040329        -0.867600         0.552775
