19
Iteration:  3907charge 0 multiplicity 1
 O         0.145310         0.146051        -0.134440
 C        -0.998288         0.564092         0.692767
 C        -1.275034         2.070362         1.093476
 C        -2.432018         1.092629         1.827491
 C        -1.212090         0.180950         2.306561
 C        -3.833534         1.761216         1.966061
 C        -4.238271         1.828811         0.465932
 O        -3.514436         0.835740        -0.267642
 C        -2.509743         0.211051         0.510221
 H        -0.062499         0.049792        -1.082537
 H        -0.536734         2.486246         1.787649
 H        -1.710026         2.745941         0.313961
 H        -0.363221         0.610433         2.898684
 H        -1.517154        -0.856329         2.438016
 H        -4.522876         1.122500         2.566458
 H        -3.755709         2.733026         2.483252
 H        -5.281705         1.747787         0.073012
 H        -3.878230         2.899055         0.133323
 H        -2.956088        -0.806703         0.613018
