19
Iteration:  4035charge 0 multiplicity 1
 O         0.121467         0.036742         0.032058
 C        -0.906704         0.554826         0.760575
 C        -1.116059         1.997046         1.097258
 C        -2.361761         1.176171         1.708972
 C        -1.297242         0.140718         2.177224
 C        -3.706831         1.784878         1.951845
 C        -4.520268         1.648285         0.574021
 O        -3.556691         1.006017        -0.388619
 C        -2.464363         0.369387         0.472456
 H         0.107729         0.541298        -0.807990
 H        -0.508544         2.476167         1.843098
 H        -1.495728         2.698915         0.283094
 H        -0.648053         0.371253         3.087384
 H        -1.409504        -0.928979         2.333884
 H        -4.333158         1.256862         2.702411
 H        -3.597210         2.859982         2.098684
 H        -5.424087         0.932820         0.724671
 H        -4.811913         2.637572         0.119446
 H        -2.913018        -0.631502         0.549403
