19
Iteration:  2458
 O         0.074914         0.009127        -0.076226
 C        -0.983890         0.545436         0.638969
 C        -1.299734         2.005461         0.904892
 C        -2.328337         1.158155         1.734833
 C        -1.196345         0.355624         2.206524
 C        -3.830136         1.569695         2.004961
 C        -4.296652         1.918941         0.571015
 O        -3.472130         0.962069        -0.224197
 C        -2.604737         0.199232         0.533391
 H         0.846971         0.244225         0.445377
 H        -0.530609         2.520170         1.518908
 H        -1.544385         2.621815        -0.019054
 H        -0.348664         0.756457         2.703271
 H        -1.198899        -0.623167         2.522544
 H        -4.354573         0.703221         2.422184
 H        -3.929745         2.247580         2.912789
 H        -5.379519         1.734929         0.342450
 H        -4.159326         3.018500         0.347446
 H        -3.052813        -0.841366         0.607867
