19
Iteration:  2712
 O        -0.094171         0.165332        -0.209101
 C        -1.021409         0.566808         0.673740
 C        -1.324100         2.040953         1.011646
 C        -2.394707         1.148046         1.791853
 C        -1.239076         0.248791         2.262099
 C        -3.772048         1.737833         1.998217
 C        -4.140395         1.842957         0.479011
 O        -3.462120         0.755107        -0.249083
 C        -2.442041         0.217439         0.578433
 H         0.759810         0.277559         0.208091
 H        -0.524566         2.497079         1.674157
 H        -1.784813         2.577739         0.152884
 H        -0.550003         0.594023         2.995962
 H        -1.297244        -0.885784         2.391641
 H        -4.620814         1.101767         2.496347
 H        -3.673558         2.670466         2.586765
 H        -5.186619         1.623697         0.335463
 H        -3.893929         2.886700         0.095304
 H        -2.810120        -0.754349         0.983231
