19
Iteration:  2019
 O         0.146937        -0.002274         0.060801
 C        -1.034712         0.487349         0.663629
 C        -1.227136         2.033042         0.907256
 C        -2.368777         1.163481         1.736689
 C        -1.330387         0.257310         2.185640
 C        -3.763431         1.583056         2.097251
 C        -4.276265         1.863484         0.635754
 O        -3.420936         1.058998        -0.361956
 C        -2.626831         0.272994         0.488966
 H         0.418523         0.274216        -0.849260
 H        -0.439978         2.614412         1.399810
 H        -1.594111         2.658853         0.065129
 H        -0.456739         0.794194         2.792099
 H        -1.528146        -0.810668         2.488061
 H        -4.307695         0.683620         2.410576
 H        -3.964409         2.375661         2.754663
 H        -5.247774         1.410420         0.502458
 H        -4.320511         2.859888         0.175938
 H        -3.121449        -0.741600         0.638877
