19
Iteration:  3800charge 0 multiplicity 1
 O        -0.073647        -0.105242        -0.094963
 C        -0.918995         0.626462         0.781634
 C        -1.221873         2.097968         0.949890
 C        -2.403141         1.257139         1.743411
 C        -1.235659         0.238187         2.205043
 C        -3.858910         1.541506         2.071179
 C        -4.380149         1.700813         0.531923
 O        -3.321491         1.088668        -0.326317
 C        -2.449978         0.328425         0.512701
 H         0.791870         0.350533        -0.266169
 H        -0.620296         2.813957         1.550535
 H        -1.502095         2.572667        -0.004134
 H        -0.571319         0.501423         2.974329
 H        -1.552618        -0.759576         2.589288
 H        -4.168667         0.676027         2.640792
 H        -3.978402         2.463492         2.689676
 H        -5.391724         1.193480         0.420722
 H        -4.739975         2.661951         0.211383
 H        -2.798846        -0.738007         0.518298
