19
Iteration:  4111charge 0 multiplicity 1
 O         0.106330        -0.081515        -0.013961
 C        -0.976241         0.583501         0.688024
 C        -1.205402         2.029315         1.126832
 C        -2.388129         1.180418         1.729390
 C        -1.191718         0.256964         2.218463
 C        -3.827016         1.631596         1.987427
 C        -4.424394         1.686725         0.521222
 O        -3.425997         1.042497        -0.378229
 C        -2.520770         0.442833         0.504006
 H        -0.216703         0.110295        -0.901687
 H        -0.425640         2.256318         1.843569
 H        -1.406337         2.842728         0.373162
 H        -0.603076         0.936652         2.924169
 H        -1.486165        -0.760388         2.536261
 H        -4.325797         0.820666         2.586212
 H        -3.900701         2.587204         2.527180
 H        -5.252285         0.976528         0.489852
 H        -4.415812         2.683516         0.079207
 H        -2.923405        -0.609779         0.648341
