19
Iteration:  4924charge 0 multiplicity 1
 O         0.194147         0.072417         0.067766
 C        -0.893040         0.559106         0.669104
 C        -1.191347         2.022454         1.041310
 C        -2.311856         1.179541         1.748475
 C        -1.380593         0.121148         2.230086
 C        -3.749742         1.717832         2.016603
 C        -4.468147         1.669138         0.559482
 O        -3.519738         0.964085        -0.396235
 C        -2.562156         0.396171         0.431573
 H         0.762536         0.703637        -0.401309
 H        -0.402970         2.634889         1.665394
 H        -1.499386         2.662423         0.205607
 H        -0.609027         0.520622         2.969780
 H        -1.943114        -0.782469         2.209717
 H        -4.265591         0.977614         2.658268
 H        -3.812544         2.717621         2.418213
 H        -5.367232         0.977330         0.619944
 H        -4.672609         2.649247         0.188056
 H        -2.775378        -0.676612         0.499278
