19
Iteration:  2444
 O         0.013993         0.003153        -0.090658
 C        -1.013898         0.553905         0.644805
 C        -1.396991         2.075346         0.952007
 C        -2.400926         1.167995         1.741877
 C        -1.172839         0.260448         2.206887
 C        -3.747657         1.590158         2.041024
 C        -4.202543         1.957944         0.623542
 O        -3.491313         0.839534        -0.325599
 C        -2.493332         0.253052         0.536920
 H         0.869971         0.361509         0.261039
 H        -0.677915         2.615957         1.526552
 H        -1.886739         2.721763         0.234073
 H        -0.532903         0.915453         2.884768
 H        -1.569249        -0.743671         2.456030
 H        -4.351788         0.706660         2.336832
 H        -3.818355         2.533509         2.642136
 H        -5.270131         1.896950         0.450692
 H        -3.809055         2.897651         0.185895
 H        -2.664236        -0.750270         0.847519
