19
Iteration:  1734charge 0 multiplicity 1
 O         0.125258        -0.013646         0.018918
 C        -1.038819         0.492749         0.650867
 C        -1.307437         2.012329         1.090857
 C        -2.434089         1.040970         1.769236
 C        -1.178029         0.063245         2.199279
 C        -3.900523         1.691431         2.034825
 C        -4.290838         1.953308         0.533118
 O        -3.368124         1.126504        -0.301429
 C        -2.534167         0.297045         0.420294
 H         0.242863         0.546338        -0.740503
 H        -0.589216         2.446743         1.790745
 H        -1.505928         2.651142         0.234255
 H        -0.428503         0.416509         2.928242
 H        -1.474875        -1.025436         2.417096
 H        -4.529142         0.854470         2.402537
 H        -4.037598         2.603396         2.569161
 H        -5.278130         1.731543         0.091806
 H        -3.999869         3.038309         0.294230
 H        -2.784449        -0.728613         0.293945
