19
Iteration:  1555charge 0 multiplicity 1
 O         0.221007         0.069402         0.048754
 C        -0.875467         0.541055         0.667290
 C        -1.276989         2.049561         1.144638
 C        -2.429312         1.085962         1.712765
 C        -1.449182         0.037744         2.130412
 C        -3.706857         1.678683         2.073597
 C        -4.198373         1.861355         0.542151
 O        -3.572260         1.107413        -0.364525
 C        -2.544530         0.362128         0.387564
 H         0.072936        -0.824720        -0.301297
 H        -0.634992         2.610068         1.811620
 H        -1.602797         2.515817         0.165128
 H        -0.671998         0.277726         2.963172
 H        -1.776129        -1.067092         2.205189
 H        -4.360167         0.926153         2.436902
 H        -3.656675         2.522974         2.774549
 H        -5.311253         1.600721         0.556511
 H        -4.173636         2.904222         0.242621
 H        -2.970916        -0.726099         0.432397
