19
Iteration:  4290
 O         0.119217         0.059431        -0.038150
 C        -1.011196         0.512052         0.679546
 C        -1.314945         2.144763         0.979563
 C        -2.417319         1.188840         1.738520
 C        -1.391698         0.157532         2.199433
 C        -3.715557         1.785737         2.099021
 C        -4.365018         1.540691         0.621857
 O        -3.296149         1.123431        -0.391397
 C        -2.489164         0.220786         0.390589
 H         0.581400        -0.401664         0.672206
 H        -0.603452         2.656435         1.644891
 H        -1.706206         2.836933         0.242406
 H        -0.830435         0.431020         3.016343
 H        -1.698083        -0.842040         2.563824
 H        -4.276128         1.286900         2.844375
 H        -3.631547         2.887009         2.182169
 H        -5.291888         0.944332         0.811306
 H        -4.734829         2.416144         0.089919
 H        -2.990085        -0.783815         0.428208
