19
Iteration:   834charge 0 multiplicity 1
 O         0.077530         0.093574        -0.096370
 C        -0.957404         0.570707         0.696834
 C        -1.334305         2.077750         1.026111
 C        -2.427034         1.100784         1.752151
 C        -1.383396         0.223071         2.370880
 C        -3.703829         1.675752         1.977291
 C        -4.101234         1.926719         0.503223
 O        -3.656484         0.833697        -0.386510
 C        -2.425446         0.180837         0.484862
 H         0.910990         0.088573         0.402390
 H        -0.753578         2.531788         1.820196
 H        -1.700365         2.877086         0.252687
 H        -0.727354         0.711868         3.166880
 H        -1.653772        -0.911093         2.470849
 H        -4.490123         1.188914         2.569901
 H        -3.585942         2.679150         2.335847
 H        -5.193554         2.030171         0.430180
 H        -3.525920         2.816300         0.124178
 H        -2.515972        -0.969811         0.543851
