19
Iteration:  4117
 O         0.133494        -0.042501        -0.010337
 C        -0.920116         0.553173         0.680059
 C        -1.186716         2.030116         1.135883
 C        -2.459005         1.232105         1.696854
 C        -1.252924         0.240763         2.188049
 C        -3.772912         1.593635         1.958554
 C        -4.384542         1.690535         0.535790
 O        -3.465029         1.018132        -0.320721
 C        -2.520579         0.433209         0.514612
 H         0.029792        -0.074134        -1.010903
 H        -0.407233         2.477232         1.815725
 H        -1.388866         2.742373         0.340191
 H        -0.623187         0.792629         2.837825
 H        -1.662563        -0.746956         2.418246
 H        -4.367321         0.916512         2.549438
 H        -4.017370         2.540367         2.458904
 H        -5.392414         1.195466         0.488143
 H        -4.430357         2.735038         0.157731
 H        -2.947431        -0.516696         0.861836
