19
Iteration:  4108
 O         0.086351        -0.089081        -0.013146
 C        -0.991547         0.584538         0.696971
 C        -1.210688         2.040503         1.115772
 C        -2.349257         1.175458         1.757807
 C        -1.183324         0.263017         2.231415
 C        -3.856165         1.652755         2.008133
 C        -4.427836         1.676723         0.516832
 O        -3.406424         1.057677        -0.403865
 C        -2.522959         0.408664         0.485757
 H        -0.263686         0.160339        -0.913232
 H        -0.465255         2.252527         1.842720
 H        -1.422601         2.860422         0.386610
 H        -0.582111         0.838060         2.950600
 H        -1.350542        -0.714677         2.578256
 H        -4.293542         0.826592         2.571658
 H        -3.849559         2.569821         2.534574
 H        -5.249522         0.996378         0.464569
 H        -4.537341         2.683625         0.084040
 H        -2.838740        -0.634703         0.555722
