19
Iteration:  1680
 O         0.204041         0.073106         0.038063
 C        -0.948838         0.495959         0.694280
 C        -1.132161         1.869324         1.074978
 C        -2.407772         1.126292         1.726892
 C        -1.417697         0.077082         2.144952
 C        -3.824730         1.720824         2.014815
 C        -4.434229         1.799520         0.615028
 O        -3.372601         1.211501        -0.370996
 C        -2.498324         0.398700         0.454007
 H        -0.095837        -0.315344        -0.769822
 H        -0.334875         2.364827         1.652564
 H        -1.413656         2.473763         0.222385
 H        -0.763963         0.146839         2.994140
 H        -1.854190        -0.951538         2.098135
 H        -4.479500         1.003930         2.620536
 H        -3.895411         2.633528         2.602323
 H        -5.230381         1.024228         0.496620
 H        -4.824034         2.815185         0.222628
 H        -2.912597        -0.632053         0.626865
