19
Iteration:  3949charge 0 multiplicity 1
 O         0.017317        -0.052101        -0.028094
 C        -1.043961         0.586423         0.577287
 C        -1.259379         2.095826         1.005718
 C        -2.338320         1.214476         1.785053
 C        -1.239491         0.269794         2.283340
 C        -3.859258         1.511810         2.044723
 C        -4.315428         1.817919         0.512504
 O        -3.336573         0.951367        -0.320335
 C        -2.503266         0.320355         0.537457
 H         0.107347         0.449365        -0.885029
 H        -0.541042         2.544786         1.674375
 H        -1.683916         2.856334         0.276918
 H        -0.423193         0.831396         2.877454
 H        -1.627761        -0.707762         2.548459
 H        -4.446845         0.733624         2.601346
 H        -4.039586         2.492855         2.514089
 H        -5.287877         1.540740         0.255333
 H        -3.967316         2.776741         0.297843
 H        -2.749208        -0.757280         0.599769
