19
Iteration:   791
 O         0.000178         0.010000        -0.040944
 C        -1.030801         0.581533         0.677508
 C        -1.285972         2.014522         0.990143
 C        -2.381805         1.191819         1.874451
 C        -1.145017         0.220154         2.232404
 C        -3.919331         1.670093         1.942898
 C        -4.275935         1.761579         0.414118
 O        -3.316287         1.034494        -0.334220
 C        -2.571172         0.286001         0.562104
 H         0.687050        -0.077783         0.679239
 H        -0.394445         2.376543         1.481052
 H        -1.543137         2.579261         0.024439
 H        -0.205907         0.533271         2.777888
 H        -1.517417        -0.861875         2.384835
 H        -4.396537         0.771251         2.396745
 H        -4.084154         2.575825         2.496936
 H        -5.277322         1.394236         0.258474
 H        -4.215047         2.842912         0.342703
 H        -3.155540        -0.594876         0.967685
