19
Iteration:   821charge 0 multiplicity 1
 O         0.077035         0.081670        -0.167835
 C        -0.885766         0.579236         0.786817
 C        -1.328609         1.991040         1.078602
 C        -2.399347         1.131889         1.680398
 C        -1.395439         0.272822         2.355862
 C        -3.770693         1.679635         1.969630
 C        -4.156076         1.864551         0.486205
 O        -3.547063         0.858404        -0.316364
 C        -2.488198         0.258214         0.444905
 H         0.933537        -0.205771         0.235158
 H        -0.735209         2.611106         1.789100
 H        -1.484778         2.501108         0.094338
 H        -0.711376         0.747922         3.148753
 H        -1.762443        -0.692474         2.716441
 H        -4.278657         0.890996         2.503880
 H        -3.765975         2.602169         2.539096
 H        -5.267865         1.897535         0.268804
 H        -3.821141         2.933441         0.258172
 H        -2.980577        -0.705676         0.690629
