19
Iteration:  4338
 O         0.230335         0.001479         0.018755
 C        -0.999321         0.557497         0.629617
 C        -1.152625         1.998785         1.059753
 C        -2.395208         1.257349         1.723163
 C        -1.226308         0.263171         2.201534
 C        -3.877118         1.731716         2.015997
 C        -4.552173         1.569966         0.552514
 O        -3.365501         1.085868        -0.364861
 C        -2.527714         0.388320         0.474317
 H        -0.177990        -0.869613        -0.247875
 H        -0.478415         2.329487         1.862896
 H        -1.343912         2.862731         0.370329
 H        -0.363199         0.268578         2.918158
 H        -1.648953        -0.675576         2.381835
 H        -4.294115         1.027798         2.790793
 H        -3.890330         2.774604         2.239632
 H        -5.309634         0.791648         0.502656
 H        -5.105752         2.479743         0.300885
 H        -2.927240        -0.620662         0.667153
