19
Iteration:    57charge 0 multiplicity 1
 O         0.094017        -0.032757         0.043363
 C        -0.947861         0.497232         0.761227
 C        -1.177776         2.003549         0.993437
 C        -2.422480         1.179254         1.637278
 C        -1.353550         0.312856         2.314523
 C        -3.678928         1.761273         2.088963
 C        -4.413478         1.551760         0.514275
 O        -3.375592         1.151354        -0.444869
 C        -2.572342         0.293586         0.426479
 H        -0.179878         0.047839        -0.936347
 H        -0.622548         2.435231         1.830876
 H        -1.407547         2.719390         0.202264
 H        -0.781945         0.883521         3.032532
 H        -1.621722        -0.672886         2.784841
 H        -4.151835         1.281551         2.909305
 H        -3.503005         2.842144         2.338889
 H        -5.043362         0.692630         0.765683
 H        -4.990189         2.354851         0.172910
 H        -2.868371        -0.718080         0.620076
