19
Iteration:  3142
 O         0.042628         0.037570        -0.217698
 C        -0.993825         0.541248         0.652500
 C        -1.378179         2.040402         1.198514
 C        -2.368875         1.151908         1.816622
 C        -1.189948         0.081242         2.238872
 C        -3.716761         1.926027         1.951514
 C        -4.424527         1.664306         0.499620
 O        -3.419328         0.964982        -0.336180
 C        -2.482178         0.293074         0.554595
 H         0.842659         0.444505         0.183700
 H        -0.639715         2.545914         1.835006
 H        -1.682765         2.695968         0.363534
 H        -0.516989         0.382882         3.075867
 H        -1.502639        -0.829885         2.629936
 H        -4.315474         1.367220         2.690113
 H        -3.442453         3.023337         1.974179
 H        -5.328347         0.997276         0.597528
 H        -4.535714         2.651397        -0.030933
 H        -2.683462        -0.746498         0.722888
