19
Iteration:   896
 O        -0.014698         0.000596        -0.049870
 C        -0.957676         0.499211         0.752268
 C        -1.289233         1.961201         0.996283
 C        -2.424507         1.162602         1.772184
 C        -1.404321         0.282457         2.313141
 C        -3.775362         1.617846         2.027730
 C        -4.216041         1.800484         0.483877
 O        -3.341196         1.043730        -0.370857
 C        -2.436126         0.280203         0.498880
 H         0.170622         0.706274        -0.687900
 H        -0.619658         2.495818         1.681300
 H        -1.514621         2.570520         0.121693
 H        -0.627157         0.751960         2.929519
 H        -1.531972        -0.681004         2.631694
 H        -4.480479         0.958244         2.528957
 H        -3.838630         2.609253         2.547688
 H        -5.287940         1.470406         0.425895
 H        -4.247284         2.849527         0.208579
 H        -2.766061        -0.739436         0.349611
