19
Iteration:  3024
 O         0.145290         0.120662        -0.212617
 C        -0.968555         0.538021         0.693185
 C        -1.286771         1.988401         1.067314
 C        -2.428479         1.170023         1.752064
 C        -1.313742         0.212636         2.230024
 C        -3.836724         1.726764         2.039320
 C        -4.330991         1.897348         0.562676
 O        -3.507196         0.882396        -0.283727
 C        -2.449394         0.208190         0.527534
 H         0.975717        -0.117136         0.252895
 H        -0.399808         2.456571         1.581738
 H        -1.494139         2.549271         0.121499
 H        -0.455633         0.541784         2.962287
 H        -1.591931        -0.865149         2.482523
 H        -4.475979         1.041307         2.666185
 H        -3.635215         2.750264         2.545921
 H        -5.312755         1.630231         0.208286
 H        -4.075430         2.870645         0.128657
 H        -2.855233        -0.848168         0.656655
