19
Iteration:  4653
 O         0.097117         0.023170        -0.055619
 C        -0.983794         0.531809         0.752073
 C        -1.238388         2.021870         1.033687
 C        -2.475380         1.130391         1.766741
 C        -1.305984         0.245270         2.273235
 C        -3.786499         1.722906         1.958015
 C        -4.459739         1.553311         0.638936
 O        -3.320270         1.119347        -0.450963
 C        -2.446876         0.314884         0.480702
 H         0.300799         0.689048        -0.774612
 H        -0.692236         2.583214         1.774197
 H        -1.453013         2.675406         0.232699
 H        -0.509541         0.581110         3.061275
 H        -1.511731        -0.727467         2.647625
 H        -4.356126         1.415699         2.900881
 H        -3.505878         2.694495         2.248585
 H        -5.115189         0.730919         0.540770
 H        -4.856880         2.473781         0.180900
 H        -2.845936        -0.687533         0.584172
