19
Iteration:  2604
 O         0.083844        -0.100385        -0.042499
 C        -0.939532         0.526944         0.682166
 C        -1.261743         2.064420         0.922542
 C        -2.378673         1.185640         1.716016
 C        -1.161270         0.217172         2.193780
 C        -3.822972         1.730082         2.023767
 C        -4.496930         1.606941         0.625829
 O        -3.418739         1.082536        -0.274706
 C        -2.476877         0.363818         0.500293
 H         0.862903         0.486015        -0.149562
 H        -0.421310         2.531679         1.639210
 H        -1.532630         2.760891         0.089940
 H        -0.534138         0.714060         2.831860
 H        -1.540355        -0.801995         2.344193
 H        -4.447328         1.323515         2.870805
 H        -3.773664         2.797775         2.216058
 H        -5.601319         1.149075         0.559071
 H        -4.832829         2.641203         0.348763
 H        -2.841951        -0.708244         0.487986
