19
Iteration:  4660charge 0 multiplicity 1
 O         0.111612         0.021484        -0.078836
 C        -0.971146         0.549942         0.685746
 C        -1.294360         1.997879         1.068918
 C        -2.445257         1.083202         1.775631
 C        -1.283792         0.279639         2.346464
 C        -3.763121         1.686614         1.933308
 C        -4.403107         1.553614         0.546843
 O        -3.333357         1.152395        -0.374554
 C        -2.485255         0.314369         0.513912
 H         0.118209         0.524691        -0.920478
 H        -0.539766         2.455913         1.765975
 H        -1.640069         2.806732         0.305486
 H        -0.666982         0.791978         3.045235
 H        -1.530811        -0.764782         2.621671
 H        -4.436907         1.499810         2.733846
 H        -3.471796         2.762117         2.187141
 H        -5.233291         0.787440         0.555400
 H        -4.838860         2.439791         0.125156
 H        -2.931001        -0.715253         0.520801
