19
Iteration:   622
 O         0.054687        -0.033434        -0.012443
 C        -0.973718         0.546491         0.776080
 C        -1.259368         2.034047         0.973534
 C        -2.353999         1.241532         1.771558
 C        -1.212448         0.248243         2.229738
 C        -3.896924         1.548209         1.997073
 C        -4.318413         1.883628         0.482357
 O        -3.360571         1.023163        -0.381355
 C        -2.517552         0.368349         0.540987
 H         0.074723        -0.999436         0.050563
 H        -0.596801         2.627436         1.601508
 H        -1.518973         2.534482         0.023369
 H        -0.445129         0.604826         2.899234
 H        -1.538170        -0.743481         2.583293
 H        -4.442778         0.658450         2.277382
 H        -4.223261         2.313518         2.714973
 H        -5.224571         1.408442         0.244539
 H        -4.369613         2.940788         0.132689
 H        -2.904994        -0.662392         0.652341
