19
Iteration:   319
 O         0.200638        -0.070933        -0.028329
 C        -0.908536         0.570265         0.686939
 C        -1.116522         1.926280         0.992616
 C        -2.363298         1.274552         1.824435
 C        -1.321755         0.235699         2.248466
 C        -3.908572         1.616566         2.029615
 C        -4.461016         1.758751         0.385852
 O        -3.419914         1.083824        -0.355598
 C        -2.532766         0.413488         0.596276
 H        -0.084336        -0.830817        -0.479191
 H        -0.453032         2.394455         1.679984
 H        -1.447961         2.733140         0.315666
 H        -0.647752         0.787494         2.820526
 H        -1.565043        -0.723940         2.562217
 H        -4.448885         0.778689         2.426872
 H        -3.900962         2.535648         2.702009
 H        -5.474604         1.246113         0.209181
 H        -4.557652         2.847554         0.139314
 H        -3.030323        -0.560860         0.731558
