19
Iteration:  1097
 O         0.195966         0.056379         0.084571
 C        -1.004053         0.520517         0.727777
 C        -1.267127         1.990642         0.964839
 C        -2.354430         1.120417         1.754766
 C        -1.205772         0.151431         2.174246
 C        -3.887802         1.612624         1.945825
 C        -4.258136         1.880373         0.593422
 O        -3.500885         1.104999        -0.380819
 C        -2.585364         0.299335         0.464966
 H         0.017176        -0.839471        -0.190050
 H        -0.518986         2.577017         1.637194
 H        -1.504823         2.520562         0.070670
 H        -0.544406         0.655485         2.844021
 H        -1.610049        -0.814733         2.526782
 H        -4.436552         0.771119         2.382932
 H        -3.943800         2.448551         2.597011
 H        -5.362032         1.898414         0.422413
 H        -4.010052         2.991408         0.414355
 H        -2.930767        -0.733223         0.659733
