19
Iteration:  2116charge 0 multiplicity 1
 O         0.190819         0.180355        -0.142545
 C        -1.048880         0.471637         0.654082
 C        -1.275166         1.933750         0.994981
 C        -2.367405         1.207189         1.822014
 C        -1.268714         0.193112         2.274867
 C        -3.831644         1.723005         1.968215
 C        -4.255686         1.866642         0.456841
 O        -3.450033         0.940734        -0.184374
 C        -2.553972         0.191115         0.585186
 H        -0.055418        -0.239135        -0.987361
 H        -0.431707         2.450296         1.575697
 H        -1.766383         2.676847         0.281564
 H        -0.529597         0.658989         2.950861
 H        -1.539832        -0.805948         2.535557
 H        -4.457478         0.912474         2.453554
 H        -4.065233         2.626994         2.482318
 H        -5.319067         1.634154         0.211857
 H        -4.096572         2.869981        -0.032988
 H        -2.846373        -0.802382         0.827665
