19
Iteration:   511
 O         0.056371        -0.085264        -0.004151
 C        -0.951861         0.599075         0.738009
 C        -1.259670         2.051319         1.051028
 C        -2.403652         1.146868         1.671745
 C        -1.359060         0.183358         2.344937
 C        -3.807262         1.665863         2.067351
 C        -4.308299         1.869401         0.506684
 O        -3.449261         0.968863        -0.435861
 C        -2.417746         0.306798         0.459055
 H         0.228800         0.672026        -0.652159
 H        -0.630278         2.765162         1.579333
 H        -1.508243         2.572400         0.073270
 H        -0.640280         0.605489         3.038732
 H        -1.546110        -0.906070         2.648938
 H        -4.367335         0.860805         2.588270
 H        -3.621271         2.576079         2.645498
 H        -5.374053         1.628642         0.309311
 H        -4.120991         2.964938         0.340494
 H        -2.525126        -0.802435         0.537660
