19
Iteration:  1306charge 0 multiplicity 1
 O         0.021599         0.063628        -0.172828
 C        -1.016147         0.429915         0.737157
 C        -1.259173         1.935860         1.156466
 C        -2.374942         1.101696         1.819615
 C        -1.257925         0.051617         2.245756
 C        -3.761554         1.811594         1.911442
 C        -4.449809         1.699779         0.476867
 O        -3.261689         1.179412        -0.333757
 C        -2.547823         0.366404         0.535112
 H         0.848016         0.250811         0.373890
 H        -0.572624         2.519151         1.824997
 H        -1.664462         2.536109         0.248211
 H        -0.416895         0.422085         2.892320
 H        -1.488413        -0.976010         2.413135
 H        -4.565390         1.496219         2.710851
 H        -3.668977         2.860468         2.246063
 H        -5.347620         1.138529         0.377896
 H        -4.684920         2.685602        -0.105572
 H        -3.064582        -0.627380         0.664702
