19
Iteration:  1968
 O         0.068821         0.108153        -0.128020
 C        -1.032301         0.582162         0.650688
 C        -1.223730         1.964768         1.097585
 C        -2.370760         1.176365         1.796392
 C        -1.248243         0.098918         2.192144
 C        -3.770123         1.802563         2.035761
 C        -4.340883         1.704128         0.483587
 O        -3.371916         1.060963        -0.361566
 C        -2.593174         0.297963         0.573269
 H         0.291589        -0.789317         0.252567
 H        -0.536062         2.313278         1.883441
 H        -1.460564         2.705465         0.400910
 H        -0.490213         0.324239         2.918104
 H        -1.586663        -0.901934         2.113839
 H        -4.275643         1.185685         2.770277
 H        -3.740904         2.893950         2.335355
 H        -5.269861         1.112396         0.703014
 H        -4.601958         2.584929        -0.098816
 H        -3.005984        -0.690404         0.729385
