19
Iteration:  1500charge 0 multiplicity 1
 O         0.023491         0.173362        -0.212842
 C        -0.955734         0.494898         0.692460
 C        -1.370382         1.939382         1.083422
 C        -2.429825         1.098750         1.781344
 C        -1.363524         0.119907         2.394669
 C        -3.816396         1.535577         1.986517
 C        -4.149528         2.059257         0.527286
 O        -3.282753         1.099546        -0.370846
 C        -2.600803         0.226653         0.507586
 H         0.205987        -0.805387        -0.051962
 H        -0.610452         2.416281         1.683421
 H        -1.541690         2.628935         0.217851
 H        -0.644866         0.433091         3.245631
 H        -1.586080        -0.971575         2.435559
 H        -4.292566         0.644424         2.300571
 H        -3.838305         2.361317         2.721828
 H        -5.177042         2.023090         0.011904
 H        -3.700479         3.063418         0.465442
 H        -2.911804        -0.886294         0.757313
