19
Iteration:  1933
 O        -0.084290         0.068973        -0.272634
 C        -0.928456         0.532765         0.737730
 C        -1.190970         1.898237         1.029180
 C        -2.418649         1.136977         1.816306
 C        -1.375726         0.160056         2.448801
 C        -3.738880         1.763009         2.024594
 C        -4.371360         1.663887         0.531016
 O        -3.300571         1.212306        -0.394020
 C        -2.486820         0.301940         0.495725
 H         0.827643        -0.069763         0.114574
 H        -0.589947         2.513513         1.663103
 H        -1.362176         2.472568         0.129972
 H        -0.603333         0.345267         3.294070
 H        -1.555818        -0.928215         2.504043
 H        -4.396182         1.195414         2.680670
 H        -3.775046         2.774986         2.386458
 H        -5.076468         0.855197         0.401087
 H        -4.828215         2.583488         0.117712
 H        -2.833329        -0.758855         0.501231
