19
Iteration:  3163
 O         0.022937         0.134526        -0.146482
 C        -0.930554         0.514593         0.746597
 C        -1.211071         1.935112         1.019285
 C        -2.420445         1.079491         1.784541
 C        -1.247368         0.193192         2.233925
 C        -3.775458         1.905604         1.978065
 C        -4.388453         1.622011         0.552422
 O        -3.400297         1.024501        -0.330431
 C        -2.578276         0.289668         0.513471
 H         0.915818         0.089243         0.203161
 H        -0.672355         2.468349         1.789180
 H        -1.507103         2.626149         0.218845
 H        -0.488079         0.489312         2.973937
 H        -1.381078        -0.846265         2.401086
 H        -4.503060         1.512046         2.701164
 H        -3.359185         2.909876         2.130848
 H        -5.216801         0.829620         0.762708
 H        -4.762777         2.625303         0.172608
 H        -2.851560        -0.766170         0.466706
