19
Iteration:  3307
 O         0.076542         0.115524        -0.161828
 C        -0.992405         0.586638         0.715257
 C        -1.349076         2.045838         1.140382
 C        -2.413690         1.097979         1.746119
 C        -1.175662         0.182541         2.220060
 C        -3.775564         1.811287         1.967016
 C        -4.187082         1.881166         0.486125
 O        -3.597938         0.775979        -0.297204
 C        -2.518946         0.157904         0.561925
 H         0.857648         0.721671        -0.229807
 H        -0.679081         2.446229         1.899959
 H        -1.677573         2.763043         0.398187
 H        -0.419813         0.674832         2.916858
 H        -1.299168        -0.870583         2.402631
 H        -4.562026         1.317911         2.569101
 H        -3.487915         2.834633         2.242362
 H        -5.320808         1.654659         0.400058
 H        -3.849907         2.910729         0.120817
 H        -2.759920        -0.934587         0.714025
