19
Iteration:  3816
 O        -0.080155        -0.130844        -0.028974
 C        -0.942607         0.596700         0.672465
 C        -1.235148         2.142399         1.018820
 C        -2.332819         1.198057         1.772659
 C        -1.245159         0.303473         2.231521
 C        -3.775335         1.512046         2.020968
 C        -4.332480         1.692187         0.585427
 O        -3.469566         1.011019        -0.391283
 C        -2.461840         0.468599         0.442465
 H         0.849149         0.092963         0.276502
 H        -0.431156         2.618377         1.636565
 H        -1.684587         2.796494         0.245284
 H        -0.481479         0.811731         2.948221
 H        -1.445241        -0.790677         2.274139
 H        -4.301910         0.580816         2.378892
 H        -4.067965         2.302256         2.713227
 H        -5.329822         1.268342         0.441989
 H        -4.303925         2.820546         0.356450
 H        -2.589178        -0.591187         0.650391
