19
Iteration:  2083charge 0 multiplicity 1
 O        -0.078745         0.161147        -0.194086
 C        -1.007357         0.543448         0.751308
 C        -1.329025         2.078511         1.132356
 C        -2.375826         1.178277         1.746827
 C        -1.232303         0.198182         2.282656
 C        -3.752237         1.733040         2.060329
 C        -4.147805         1.784798         0.426392
 O        -3.447508         0.881623        -0.308659
 C        -2.527286         0.154667         0.447724
 H         0.309278        -0.726839         0.091693
 H        -0.576338         2.647247         1.835456
 H        -1.724708         2.908033         0.401545
 H        -0.473466         0.664947         2.999820
 H        -1.453553        -0.847973         2.483379
 H        -4.296439         1.120659         2.872473
 H        -3.700240         2.775188         2.246113
 H        -5.251866         1.736226         0.239585
 H        -3.723745         2.815641         0.220705
 H        -2.714026        -0.874282         0.609707
