19
Iteration:   321charge 0 multiplicity 1
 O         0.212771        -0.072008        -0.023968
 C        -0.914004         0.555478         0.693173
 C        -1.120126         1.916337         1.000556
 C        -2.366156         1.265308         1.802717
 C        -1.313032         0.233396         2.243691
 C        -3.913436         1.613894         2.020768
 C        -4.469578         1.765074         0.391581
 O        -3.430571         1.087799        -0.340500
 C        -2.520307         0.444994         0.595933
 H        -0.151513        -0.854174        -0.487095
 H        -0.330886         2.441815         1.666053
 H        -1.402772         2.770778         0.310656
 H        -0.545592         0.830182         2.825295
 H        -1.570035        -0.797373         2.559014
 H        -4.478352         0.733436         2.428169
 H        -3.984225         2.594610         2.664202
 H        -5.460933         1.181001         0.200704
 H        -4.606181         2.794988         0.076670
 H        -3.053765        -0.520498         0.743648
