19
Iteration:  4048
 O         0.101934         0.050752        -0.027025
 C        -0.986106         0.466298         0.732069
 C        -1.198026         1.951430         1.102876
 C        -2.367260         1.229055         1.757205
 C        -1.246060         0.160696         2.266640
 C        -3.808178         1.784728         1.945325
 C        -4.399105         1.559629         0.583983
 O        -3.446080         1.063793        -0.352402
 C        -2.513851         0.393253         0.395743
 H         0.071945         0.553677        -0.866157
 H        -0.386861         2.364312         1.763537
 H        -1.330210         2.617943         0.226001
 H        -0.439053         0.730154         2.769225
 H        -1.756448        -0.815630         2.591789
 H        -4.315234         1.410935         2.857061
 H        -3.786204         2.883111         2.240171
 H        -5.383770         0.982660         0.505111
 H        -4.753391         2.547222         0.213016
 H        -2.667884        -0.695408         0.502909
