19
Iteration:  4448charge 0 multiplicity 1
 O         0.163249         0.060634        -0.005172
 C        -0.934326         0.627821         0.670144
 C        -1.338024         2.023364         0.950725
 C        -2.435691         1.102891         1.711767
 C        -1.295532         0.327563         2.267139
 C        -3.759359         1.567787         1.986086
 C        -4.275903         1.863862         0.528810
 O        -3.542749         0.904811        -0.308910
 C        -2.535584         0.164239         0.526868
 H         0.856793         0.664220        -0.277137
 H        -0.664694         2.605214         1.655344
 H        -1.471160         2.718418         0.192814
 H        -0.646023         0.666328         3.099362
 H        -1.691465        -0.607475         2.463266
 H        -4.261425         0.905932         2.735673
 H        -3.807881         2.548534         2.432708
 H        -5.273843         1.929931         0.065023
 H        -3.824723         2.866782         0.486882
 H        -2.736172        -0.930330         0.607164
