19
Iteration:   710charge 0 multiplicity 1
 O         0.103292         0.000805         0.011974
 C        -0.991663         0.453719         0.694076
 C        -1.197630         1.972811         1.024297
 C        -2.409788         1.305842         1.854120
 C        -1.319432         0.008418         2.123026
 C        -3.815830         1.969476         1.925632
 C        -4.375856         1.502036         0.507579
 O        -3.334528         1.093737        -0.368391
 C        -2.562770         0.385723         0.566336
 H         0.540860         0.836307        -0.052801
 H        -0.391371         2.439527         1.685928
 H        -1.322194         2.734645         0.311963
 H        -0.579021         0.395681         2.887374
 H        -1.517201        -1.011468         2.369363
 H        -4.353862         1.571855         2.753433
 H        -3.989509         3.047501         2.087305
 H        -5.051615         0.579133         0.634026
 H        -4.995500         2.261875        -0.025470
 H        -3.040329        -0.589330         0.844148
