19
Iteration:  2470charge 0 multiplicity 1
 O         0.120267         0.002936        -0.094703
 C        -0.983014         0.487527         0.679282
 C        -1.256090         1.961307         0.826218
 C        -2.445185         1.184904         1.738561
 C        -1.097503         0.306818         2.232040
 C        -3.856661         1.578542         2.073187
 C        -4.308425         1.804430         0.612130
 O        -3.507918         1.084217        -0.286413
 C        -2.587392         0.302563         0.546621
 H         0.953416         0.094557         0.435599
 H        -0.566088         2.550571         1.504225
 H        -1.579617         2.516297        -0.104438
 H        -0.475637         0.858905         2.857132
 H        -1.419823        -0.621425         2.639042
 H        -4.333579         0.653679         2.414993
 H        -4.158421         2.515647         2.583946
 H        -5.367026         1.443872         0.464779
 H        -4.097445         2.856913         0.282623
 H        -2.825405        -0.820458         0.654829
