19
Iteration:  1792charge 0 multiplicity 1
 O        -0.019588         0.056204        -0.272670
 C        -1.019346         0.532254         0.729747
 C        -1.310827         2.011878         1.215181
 C        -2.484833         1.033778         1.848266
 C        -1.312766         0.120580         2.244959
 C        -3.817887         1.629277         1.975700
 C        -4.107098         1.918715         0.471608
 O        -3.362367         1.026962        -0.366924
 C        -2.496439         0.319077         0.555898
 H         0.893724         0.119897         0.130917
 H        -0.627758         2.484608         1.902460
 H        -1.566673         2.651284         0.342737
 H        -0.671512         0.673408         2.935183
 H        -1.469493        -0.861593         2.491420
 H        -4.617467         1.002789         2.435773
 H        -3.947550         2.612965         2.498781
 H        -5.211620         1.909829         0.243297
 H        -3.777387         2.976539         0.372860
 H        -2.786487        -0.736575         0.510359
