19
Iteration:  1531
 O         0.152886         0.114458         0.060795
 C        -0.994220         0.534939         0.622775
 C        -1.345221         1.916315         1.090751
 C        -2.449352         1.090198         1.740539
 C        -1.276336         0.087994         2.155535
 C        -3.851042         1.633252         2.014285
 C        -4.234033         2.039179         0.630944
 O        -3.409946         1.078650        -0.393139
 C        -2.543934         0.262841         0.421450
 H         0.049540        -0.797057        -0.161604
 H        -0.493195         2.261894         1.682271
 H        -1.606807         2.585053         0.244932
 H        -0.429171         0.541333         2.830698
 H        -1.320336        -1.042442         2.268350
 H        -4.323887         0.794215         2.519667
 H        -3.799724         2.523973         2.671363
 H        -5.257709         1.962058         0.254906
 H        -3.886328         3.036535         0.537305
 H        -2.969934        -0.767509         0.489125
