19
Iteration:  3172
 O         0.028945         0.119117        -0.131854
 C        -0.994782         0.507528         0.716605
 C        -1.250014         1.959328         1.014629
 C        -2.422259         1.120432         1.770689
 C        -1.266820         0.194335         2.191672
 C        -3.695271         1.827324         2.047033
 C        -4.410046         1.603516         0.593061
 O        -3.369332         1.069335        -0.364564
 C        -2.523288         0.305592         0.520988
 H         0.801008         0.070685         0.442279
 H        -0.490625         2.399167         1.649962
 H        -1.374424         2.414419         0.041580
 H        -0.667646         0.706305         2.946362
 H        -1.775635        -0.742982         2.597741
 H        -4.282183         1.470664         2.880903
 H        -3.628474         2.896953         2.163403
 H        -5.292811         0.845454         0.497502
 H        -4.784437         2.463826        -0.081188
 H        -2.788493        -0.796509         0.677080
