19
Iteration:   961charge 0 multiplicity 1
 O         0.215517         0.017033         0.036978
 C        -0.997764         0.476661         0.759636
 C        -1.200310         1.995307         1.014638
 C        -2.403530         1.193605         1.697523
 C        -1.414354         0.166505         2.216178
 C        -3.748400         1.721721         2.003478
 C        -4.465929         1.637702         0.550266
 O        -3.364421         1.196857        -0.364051
 C        -2.509929         0.371400         0.456081
 H        -0.226763        -0.575968        -0.671093
 H        -0.594616         2.420762         1.793227
 H        -1.443339         2.749314         0.258266
 H        -0.588947         0.531146         2.836880
 H        -1.704266        -0.802005         2.425326
 H        -4.128425         1.096348         2.823453
 H        -3.539735         2.762884         2.403565
 H        -5.216959         0.827603         0.525117
 H        -4.966840         2.478207         0.133113
 H        -2.795407        -0.698510         0.469044
