19
Iteration:  2739charge 0 multiplicity 1
 O         0.114422         0.049134        -0.215878
 C        -0.953680         0.509416         0.709092
 C        -1.352439         1.995661         0.927746
 C        -2.407181         1.212003         1.808075
 C        -1.253391         0.273671         2.331375
 C        -3.779015         1.739413         2.073837
 C        -4.223295         1.782796         0.548885
 O        -3.516758         0.903353        -0.326573
 C        -2.525374         0.253252         0.508398
 H         0.911969         0.548059        -0.018413
 H        -0.592926         2.468540         1.558581
 H        -1.737550         2.504943         0.035325
 H        -0.533619         0.711022         3.093222
 H        -1.421266        -0.729816         2.598371
 H        -4.383023         0.999628         2.538399
 H        -3.899177         2.630554         2.696457
 H        -5.323668         1.364227         0.565926
 H        -4.294753         2.820404         0.175916
 H        -2.837921        -0.801093         0.674166
