19
Iteration:  4647charge 0 multiplicity 1
 O         0.074558         0.028129        -0.017782
 C        -0.953328         0.529072         0.787830
 C        -1.214774         2.036508         1.028781
 C        -2.413845         1.167084         1.726775
 C        -1.305431         0.202140         2.231273
 C        -3.823829         1.785193         2.046488
 C        -4.477847         1.547962         0.645084
 O        -3.312008         1.082480        -0.468371
 C        -2.471346         0.325902         0.429404
 H         0.388914         0.790814        -0.529742
 H        -0.662684         2.589511         1.829038
 H        -1.450296         2.540483         0.027618
 H        -0.538821         0.570887         2.856920
 H        -1.629786        -0.869519         2.494513
 H        -4.275085         1.156136         2.814251
 H        -3.750187         2.923881         2.200512
 H        -5.154180         0.637076         0.635235
 H        -4.928958         2.479402         0.265860
 H        -2.749789        -0.758382         0.570398
