19
Iteration:   757
 O        -0.015911        -0.190887        -0.102332
 C        -0.893968         0.612598         0.731485
 C        -1.324787         2.058525         1.073693
 C        -2.426144         1.126976         1.678675
 C        -1.344931         0.348610         2.375171
 C        -3.791460         1.711875         2.013778
 C        -4.342278         1.617866         0.587159
 O        -3.315235         1.155485        -0.406336
 C        -2.456067         0.346259         0.395583
 H         0.961079        -0.082641         0.202011
 H        -0.653625         2.675840         1.663210
 H        -1.547019         2.700457         0.192989
 H        -0.670109         0.649714         3.259792
 H        -1.670350        -0.703930         2.620719
 H        -4.445379         1.107479         2.635201
 H        -3.781412         2.645751         2.563889
 H        -5.078972         0.888652         0.334938
 H        -4.684842         2.528093         0.104943
 H        -2.655361        -0.758415         0.422043
