19
Iteration:  4577
 O         0.041010         0.025609        -0.073524
 C        -0.994849         0.566588         0.683296
 C        -1.333367         2.096704         1.009365
 C        -2.402839         1.151291         1.765828
 C        -1.292988         0.232226         2.298597
 C        -3.722429         1.668931         1.978391
 C        -4.387359         1.551168         0.586474
 O        -3.305528         1.132285        -0.407896
 C        -2.512106         0.301186         0.502124
 H         0.894822         0.155314         0.355087
 H        -0.771665         2.750510         1.648827
 H        -1.795765         2.513941         0.188833
 H        -0.477694         0.663647         3.018088
 H        -1.618369        -0.743018         2.618570
 H        -4.468003         1.228571         2.663104
 H        -3.548695         2.708723         2.219363
 H        -5.061692         0.664286         0.623425
 H        -4.858922         2.425844         0.117835
 H        -2.787570        -0.751051         0.489070
