19
Iteration:  2904
 O         0.068002        -0.104751        -0.041171
 C        -0.960959         0.587779         0.678768
 C        -1.293035         2.015715         0.950230
 C        -2.347668         1.186748         1.707666
 C        -1.220368         0.222770         2.236162
 C        -3.762612         1.730083         2.030572
 C        -4.408000         1.707897         0.615914
 O        -3.450312         1.023800        -0.310149
 C        -2.487133         0.376683         0.487248
 H         0.704257         0.598491        -0.306641
 H        -0.703519         2.665580         1.638497
 H        -1.763437         2.485187         0.084158
 H        -0.412071         0.527282         2.893570
 H        -1.403155        -0.826507         2.363150
 H        -4.191817         0.930074         2.591405
 H        -3.887266         2.604470         2.684715
 H        -5.387542         1.246804         0.422349
 H        -4.630500         2.696946         0.230933
 H        -2.928754        -0.613472         0.675260
