19
Iteration:  4651
 O         0.089137         0.025754        -0.043700
 C        -0.975905         0.528619         0.770582
 C        -1.224970         2.027263         1.032592
 C        -2.457836         1.142658         1.755198
 C        -1.307884         0.228086         2.255524
 C        -3.802791         1.745796         1.989343
 C        -4.472569         1.553942         0.646130
 O        -3.316262         1.106065        -0.463434
 C        -2.450276         0.317962         0.461601
 H         0.335298         0.721775        -0.684026
 H        -0.699574         2.594028         1.805831
 H        -1.450104         2.647252         0.108566
 H        -0.513628         0.553795         2.984180
 H        -1.535214        -0.736781         2.598564
 H        -4.317823         1.319160         2.880398
 H        -3.579655         2.778556         2.226184
 H        -5.104074         0.702978         0.570029
 H        -4.863135         2.456484         0.232450
 H        -2.807553        -0.723360         0.592722
