19
Iteration:  2484
 O         0.086578        -0.024562        -0.111899
 C        -0.910771         0.496872         0.709644
 C        -1.324400         2.014665         0.862527
 C        -2.323356         1.224044         1.770499
 C        -1.248723         0.267567         2.258208
 C        -3.837752         1.607662         2.109430
 C        -4.405009         1.741798         0.656781
 O        -3.430897         1.051166        -0.413581
 C        -2.489064         0.356304         0.497547
 H         0.866732        -0.086886         0.442227
 H        -0.503206         2.702234         1.240686
 H        -1.800043         2.417617        -0.025513
 H        -0.455442         0.813331         2.819324
 H        -1.415178        -0.860227         2.521736
 H        -4.355239         0.920699         2.812318
 H        -3.789176         2.533418         2.641912
 H        -5.447093         1.387085         0.537446
 H        -4.550452         2.809605         0.473649
 H        -3.051142        -0.614093         0.694478
