19
Iteration:  1896
 O        -0.049001        -0.134465         0.052331
 C        -1.061365         0.545499         0.658827
 C        -1.226883         2.038471         1.146493
 C        -2.366747         1.226026         1.839532
 C        -1.196729         0.152480         2.096796
 C        -3.805986         1.723213         2.024407
 C        -4.359639         1.637532         0.514595
 O        -3.309411         1.199191        -0.383306
 C        -2.514647         0.371097         0.434790
 H         0.470470         0.469045        -0.547109
 H        -0.501047         2.344362         1.927844
 H        -1.455357         2.744712         0.296665
 H        -0.222546         0.420991         2.579613
 H        -1.489611        -0.951046         2.136251
 H        -4.339677         0.954406         2.607523
 H        -3.948040         2.693171         2.509158
 H        -5.209182         0.972688         0.496663
 H        -4.716033         2.653628         0.380964
 H        -2.949851        -0.710403         0.461054
