19
Iteration:   661charge 0 multiplicity 1
 O         0.143787        -0.004924         0.052556
 C        -0.977170         0.487760         0.695664
 C        -1.231406         1.972859         1.056616
 C        -2.456410         1.191929         1.746417
 C        -1.316121         0.245137         2.289197
 C        -3.771283         1.757669         2.040988
 C        -4.358346         1.683986         0.535451
 O        -3.367060         1.084412        -0.452825
 C        -2.507127         0.319373         0.416251
 H        -0.207215        -0.131157        -0.884386
 H        -0.528927         2.608062         1.602789
 H        -1.569946         2.595012         0.163441
 H        -0.566483         0.663361         2.974421
 H        -1.712600        -0.746390         2.624216
 H        -4.435629         1.220918         2.807754
 H        -3.614110         2.758121         2.540377
 H        -5.265823         0.948857         0.725185
 H        -4.760953         2.587545         0.055221
 H        -2.821108        -0.722825         0.563306
