19
Iteration:  3408
 O         0.085238        -0.019859        -0.028416
 C        -0.995745         0.572281         0.667180
 C        -1.227276         2.085690         1.070615
 C        -2.317551         1.240311         1.788263
 C        -1.300161         0.234274         2.202748
 C        -3.775978         1.753525         2.065709
 C        -4.387697         1.513771         0.537272
 O        -3.422013         1.103333        -0.411886
 C        -2.443218         0.308067         0.503393
 H        -0.292455        -0.359484        -0.842734
 H        -0.498916         2.474087         1.771451
 H        -1.654735         2.850290         0.402178
 H        -0.439043         0.454416         2.741687
 H        -1.635382        -0.780778         2.362172
 H        -4.313548         1.166136         2.842887
 H        -3.906873         2.803097         2.343867
 H        -5.264229         0.837435         0.727157
 H        -4.869703         2.365348         0.102283
 H        -2.834783        -0.678656         0.706238
