19
Iteration:  1166
 O         0.036535         0.261519        -0.163068
 C        -0.997018         0.443001         0.661212
 C        -1.262051         1.893486         1.212172
 C        -2.483897         1.123874         1.839598
 C        -1.241901         0.067867         2.205906
 C        -3.840751         1.761234         1.981385
 C        -4.084565         1.905632         0.382882
 O        -3.369030         0.976603        -0.321886
 C        -2.620589         0.268789         0.623242
 H         0.086339        -0.709006        -0.310579
 H        -0.511466         2.371129         1.797437
 H        -1.499040         2.620112         0.374320
 H        -0.488236         0.602078         2.887901
 H        -1.541831        -0.930615         2.599826
 H        -4.599299         1.080159         2.218607
 H        -4.105248         2.683941         2.440033
 H        -5.177060         1.710913         0.350926
 H        -3.998298         2.897565        -0.092087
 H        -2.952689        -0.741230         0.750957
