19
Iteration:   576
 O         0.070852         0.147873        -0.107610
 C        -1.004155         0.511655         0.773229
 C        -1.409038         1.937391         1.002110
 C        -2.467038         1.109569         1.772877
 C        -1.278314         0.174880         2.262523
 C        -3.782121         1.774964         1.971374
 C        -4.129314         1.962823         0.485028
 O        -3.421525         0.922690        -0.348554
 C        -2.498521         0.181880         0.577938
 H         0.846336        -0.201831         0.279674
 H        -0.737832         2.581691         1.582630
 H        -1.843501         2.502918         0.112365
 H        -0.659563         0.473934         3.061576
 H        -1.417582        -0.911186         2.467500
 H        -4.462145         0.952975         2.372864
 H        -3.887255         2.661446         2.637535
 H        -5.220807         1.923004         0.226019
 H        -3.733766         2.836219        -0.019349
 H        -2.932611        -0.829843         0.570220
