19
Iteration:  2397
 O        -0.037072         0.158969        -0.264795
 C        -1.083831         0.489785         0.681245
 C        -1.267090         1.953941         1.086423
 C        -2.373389         1.251514         1.845716
 C        -1.170098         0.218179         2.333124
 C        -3.747994         1.787367         1.967084
 C        -4.199186         1.751434         0.501415
 O        -3.429725         0.891988        -0.330678
 C        -2.589360         0.183840         0.580466
 H         0.812258         0.591801        -0.123685
 H        -0.705321         2.446630         1.885049
 H        -1.535913         2.642743         0.309980
 H        -0.347628         0.744058         2.885354
 H        -1.513287        -0.870491         2.616992
 H        -4.365256         0.956287         2.371843
 H        -3.928290         2.722230         2.443570
 H        -5.244144         1.388933         0.470858
 H        -4.121513         2.639301        -0.109414
 H        -2.895427        -0.757184         0.959660
