19
Iteration:  2135
 O         0.122320         0.045772        -0.027243
 C        -0.933203         0.511637         0.742418
 C        -1.328937         1.993774         0.948242
 C        -2.429708         1.141296         1.697667
 C        -1.232308         0.287481         2.260599
 C        -3.776338         1.638912         2.071302
 C        -4.226444         1.843757         0.614908
 O        -3.463043         0.930298        -0.413196
 C        -2.588461         0.277548         0.512110
 H        -0.165489         0.377455        -0.917091
 H        -0.677834         2.595191         1.571278
 H        -1.485997         2.665476         0.041448
 H        -0.525250         0.746192         2.867479
 H        -1.578612        -0.683235         2.579357
 H        -4.374083         0.912444         2.717276
 H        -3.734845         2.615621         2.619919
 H        -5.350179         1.702671         0.470988
 H        -4.098519         2.868941         0.317217
 H        -2.848626        -0.802957         0.747716
