19
Iteration:  3059
 O        -0.063556        -0.075888         0.022389
 C        -0.995217         0.611831         0.671364
 C        -1.362532         2.081699         0.975942
 C        -2.364843         1.151915         1.768008
 C        -1.182135         0.311893         2.188227
 C        -3.784450         1.516252         2.019670
 C        -4.311883         1.858256         0.543032
 O        -3.395617         1.035193        -0.314849
 C        -2.461255         0.269454         0.429525
 H         0.859240         0.142631         0.238605
 H        -0.520851         2.626475         1.481774
 H        -1.746279         2.621288         0.066860
 H        -0.265172         0.730399         2.659795
 H        -1.337903        -0.853806         2.246711
 H        -4.295731         0.706864         2.580215
 H        -3.756743         2.356390         2.769805
 H        -5.422721         1.515332         0.557286
 H        -4.306821         2.953818         0.370723
 H        -2.798796        -0.809260         0.691523
