19
Iteration:  2737charge 0 multiplicity 1
 O         0.118012         0.055366        -0.230092
 C        -0.962623         0.521517         0.712953
 C        -1.362607         2.004623         0.928422
 C        -2.394735         1.217874         1.807565
 C        -1.258441         0.262541         2.332618
 C        -3.779512         1.745419         2.057001
 C        -4.218708         1.776287         0.534905
 O        -3.508805         0.891495        -0.310334
 C        -2.532614         0.248032         0.523739
 H         0.963842         0.503803        -0.050755
 H        -0.597388         2.458549         1.649582
 H        -1.768420         2.518252        -0.010513
 H        -0.570674         0.690905         3.086918
 H        -1.493624        -0.739892         2.643785
 H        -4.373556         0.945281         2.604760
 H        -3.869365         2.652749         2.686693
 H        -5.320220         1.395152         0.577619
 H        -4.217608         2.880279         0.223847
 H        -2.871033        -0.819434         0.595489
