19
Iteration:  2963charge 0 multiplicity 1
 O         0.068221         0.059609        -0.141546
 C        -0.984499         0.599457         0.730275
 C        -1.371142         2.058414         0.980646
 C        -2.422772         1.047594         1.777668
 C        -1.175758         0.292053         2.268104
 C        -3.817479         1.640665         1.969800
 C        -4.225327         1.874594         0.521415
 O        -3.440220         0.999392        -0.250087
 C        -2.497333         0.216606         0.531845
 H        -0.300926        -0.868120        -0.177000
 H        -0.760308         2.643580         1.657991
 H        -1.623859         2.649407         0.082802
 H        -0.290124         0.662076         2.744272
 H        -1.401532        -0.799363         2.379721
 H        -4.565098         0.938348         2.362969
 H        -3.683000         2.526202         2.551357
 H        -5.267929         1.431675         0.412416
 H        -3.996072         2.941135         0.313273
 H        -2.705416        -0.860350         0.717305
