19
Iteration:  4528charge 0 multiplicity 1
 O        -0.075926         0.070751        -0.185775
 C        -0.940250         0.537693         0.716925
 C        -1.247044         2.074824         1.136411
 C        -2.359550         1.212961         1.817307
 C        -1.211542         0.259123         2.414425
 C        -3.780739         1.644418         1.937791
 C        -4.419418         1.639829         0.462061
 O        -3.408972         0.954947        -0.408368
 C        -2.432243         0.312293         0.513969
 H         0.824604         0.416650        -0.022405
 H        -0.425728         2.408211         1.813406
 H        -1.724645         2.734331         0.340994
 H        -0.586947         0.775219         3.072308
 H        -1.325204        -0.856042         2.615910
 H        -4.332312         0.884977         2.488366
 H        -3.975336         2.738980         2.194134
 H        -5.379655         1.264606         0.161872
 H        -4.268810         2.672286         0.142411
 H        -2.841763        -0.671133         0.841405
