19
Iteration:  4429charge 0 multiplicity 1
 O         0.089385         0.039993        -0.036711
 C        -0.987967         0.574375         0.744270
 C        -1.320697         2.056098         1.020595
 C        -2.413775         1.219176         1.737168
 C        -1.294276         0.185676         2.225546
 C        -3.815319         1.672666         2.017385
 C        -4.201733         1.833717         0.544131
 O        -3.489930         0.806736        -0.352491
 C        -2.451584         0.331377         0.492744
 H         0.475355         0.859781        -0.327617
 H        -0.627995         2.794929         1.538501
 H        -1.778622         2.590348         0.197287
 H        -0.639832         0.639065         2.931820
 H        -1.454114        -0.897032         2.504460
 H        -4.312473         0.787979         2.418326
 H        -3.914788         2.611093         2.649897
 H        -5.199141         1.522605         0.418850
 H        -4.142970         2.736105        -0.051468
 H        -2.653316        -0.723185         0.701603
