19
Iteration:   970
 O         0.174071         0.051075         0.020366
 C        -0.949649         0.503281         0.702372
 C        -1.243470         1.922955         1.095494
 C        -2.418874         1.165224         1.695619
 C        -1.447472         0.201228         2.251686
 C        -3.675259         1.773994         2.020879
 C        -4.386283         1.585115         0.563466
 O        -3.409116         1.199130        -0.398875
 C        -2.496340         0.363908         0.385661
 H         0.120915        -0.607062        -0.747743
 H        -0.479782         2.433422         1.719396
 H        -1.483518         2.475585         0.227543
 H        -0.762463         0.569476         3.057792
 H        -1.944781        -0.710290         2.644846
 H        -4.312330         1.194759         2.726503
 H        -3.656045         2.828748         2.460475
 H        -5.158546         0.828259         0.735455
 H        -4.823253         2.493309         0.214007
 H        -2.802265        -0.730467         0.568005
