19
Iteration:  3922
 O         0.008635         0.045438        -0.073363
 C        -0.898759         0.586531         0.754636
 C        -1.324744         2.042129         1.149236
 C        -2.353630         1.211713         1.755192
 C        -1.149313         0.152630         2.196676
 C        -3.804633         1.650395         1.960033
 C        -4.271300         1.890829         0.432937
 O        -3.526604         0.806152        -0.334851
 C        -2.475288         0.349037         0.586088
 H        -0.349864         0.481361        -0.894892
 H        -0.723636         2.724615         1.820562
 H        -1.597426         2.608883         0.279737
 H        -0.532745         0.602923         2.924856
 H        -1.404115        -0.922931         2.451566
 H        -4.437151         0.895560         2.419652
 H        -3.949593         2.624344         2.472147
 H        -5.382751         1.622607         0.428501
 H        -3.905838         2.868157         0.014398
 H        -2.575653        -0.782252         0.735862
