19
Iteration:  4570
 O         0.017066         0.036869        -0.100515
 C        -1.014459         0.559794         0.692603
 C        -1.377353         2.088206         1.014994
 C        -2.354249         1.162830         1.770456
 C        -1.274467         0.221180         2.297356
 C        -3.802640         1.701478         2.002907
 C        -4.366356         1.513325         0.564994
 O        -3.231534         1.097628        -0.372714
 C        -2.505973         0.320403         0.459398
 H         0.827114         0.153161         0.389995
 H        -0.587451         2.689456         1.620077
 H        -1.907473         2.678026         0.200049
 H        -0.618145         0.651269         3.013614
 H        -1.710168        -0.785916         2.514031
 H        -4.228745         1.176011         2.881566
 H        -3.586372         2.832350         2.070328
 H        -5.258301         0.827968         0.471949
 H        -4.752057         2.506235         0.195004
 H        -2.875858        -0.729959         0.710189
