19
Iteration:  1961charge 0 multiplicity 1
 O         0.043346         0.152297        -0.158243
 C        -1.051137         0.470063         0.649287
 C        -1.214975         1.952682         1.128732
 C        -2.390814         1.240378         1.810573
 C        -1.326010         0.157055         2.166812
 C        -3.698364         1.775561         1.993488
 C        -4.337828         1.676227         0.524655
 O        -3.321319         1.078706        -0.344830
 C        -2.612088         0.271602         0.589445
 H         0.539249        -0.602040         0.201979
 H        -0.500377         2.223562         1.956237
 H        -1.393601         2.733568         0.297689
 H        -0.449641         0.353125         2.774175
 H        -1.675396        -0.917914         2.278633
 H        -4.335637         1.211093         2.722549
 H        -3.765309         2.836791         2.306409
 H        -5.202344         0.965582         0.378053
 H        -4.607362         2.637768         0.004445
 H        -3.064980        -0.692995         0.902009
