19
Iteration:   891
 O         0.014196         0.029069        -0.063304
 C        -0.955328         0.491106         0.757901
 C        -1.297780         1.951467         0.976376
 C        -2.403086         1.158213         1.825659
 C        -1.372708         0.245388         2.336164
 C        -3.791892         1.646371         2.050293
 C        -4.252117         1.840418         0.466766
 O        -3.335174         1.007443        -0.362686
 C        -2.497988         0.296395         0.450725
 H         0.402271         0.707623        -0.694552
 H        -0.593194         2.521587         1.625862
 H        -1.514219         2.555701         0.071070
 H        -0.577210         0.719240         2.927877
 H        -1.497937        -0.871261         2.690296
 H        -4.548908         0.913728         2.432443
 H        -3.933937         2.626167         2.523880
 H        -5.301535         1.578301         0.378517
 H        -4.176859         2.885265         0.061293
 H        -2.749957        -0.822869         0.571282
