19
Iteration:  2731
 O         0.101578         0.080996        -0.256084
 C        -0.983097         0.559968         0.704531
 C        -1.372438         2.031881         0.953044
 C        -2.353209         1.203366         1.782989
 C        -1.283821         0.232330         2.315564
 C        -3.776639         1.724761         2.015684
 C        -4.241425         1.791823         0.514542
 O        -3.467011         0.859404        -0.254989
 C        -2.549059         0.217595         0.590921
 H         0.993042         0.385866        -0.064975
 H        -0.770485         2.561908         1.631224
 H        -1.706310         2.548730         0.113523
 H        -0.576264         0.699830         3.037162
 H        -1.753148        -0.729204         2.692921
 H        -4.221556         0.991736         2.656700
 H        -3.772146         2.716579         2.482032
 H        -5.294863         1.612195         0.467226
 H        -3.958437         2.794104         0.282050
 H        -2.859247        -0.819934         0.481098
