19
Iteration:   275
 O         0.082619         0.109116        -0.060226
 C        -1.042949         0.570579         0.722147
 C        -1.382607         2.018304         1.014359
 C        -2.468584         0.990229         1.798648
 C        -1.265439         0.207670         2.318133
 C        -3.731917         1.758845         2.066316
 C        -4.200134         1.876808         0.414305
 O        -3.339164         0.991198        -0.392336
 C        -2.539888         0.205571         0.556709
 H         0.045845        -0.824572        -0.160362
 H        -0.713194         2.671847         1.501135
 H        -1.744665         2.531076         0.120506
 H        -0.641629         0.598274         3.057285
 H        -1.535556        -0.813119         2.390872
 H        -4.439652         1.176630         2.637235
 H        -3.645978         2.826169         2.458751
 H        -5.283889         1.617167         0.238407
 H        -4.016966         2.891639        -0.021349
 H        -2.816244        -0.858301         0.468735
