19
Iteration:  2439charge 0 multiplicity 1
 O        -0.008749        -0.003770        -0.123494
 C        -0.967092         0.584909         0.666755
 C        -1.435203         2.072834         0.985140
 C        -2.395528         1.158033         1.748565
 C        -1.173667         0.254430         2.236323
 C        -3.770626         1.653403         2.065339
 C        -4.106636         1.878128         0.600117
 O        -3.519223         0.820479        -0.346666
 C        -2.507750         0.289599         0.536153
 H         0.768169         0.439426         0.232080
 H        -0.758579         2.781759         1.583516
 H        -1.735615         2.641652         0.063462
 H        -0.479044         0.751821         2.919669
 H        -1.605578        -0.787741         2.393651
 H        -4.304322         0.775811         2.452019
 H        -3.898194         2.572013         2.601544
 H        -5.209785         1.957587         0.432148
 H        -3.846662         2.906045         0.304772
 H        -2.690965        -0.857622         0.609992
