19
Iteration:  1163
 O         0.046372         0.270849        -0.150191
 C        -1.007326         0.457270         0.652990
 C        -1.268361         1.888556         1.191088
 C        -2.516212         1.138346         1.857726
 C        -1.231218         0.039428         2.207618
 C        -3.807207         1.778442         1.988003
 C        -4.118903         1.925439         0.381557
 O        -3.373816         0.952969        -0.328184
 C        -2.592189         0.267584         0.614581
 H         0.093194        -0.714885        -0.338945
 H        -0.409358         2.371400         1.837251
 H        -1.505189         2.567179         0.372365
 H        -0.554338         0.558709         2.891843
 H        -1.530683        -0.918775         2.635963
 H        -4.633619         1.044882         2.154973
 H        -4.055991         2.657330         2.578701
 H        -5.229690         1.714892         0.295896
 H        -3.944772         2.963236        -0.140133
 H        -2.969740        -0.803439         0.777917
