19
Iteration:   905
 O        -0.007075        -0.066848        -0.042140
 C        -1.017721         0.543094         0.763673
 C        -1.275144         2.029323         1.057737
 C        -2.452235         1.149869         1.657605
 C        -1.316726         0.302002         2.299689
 C        -3.795402         1.628320         1.964770
 C        -4.215632         1.735252         0.550752
 O        -3.330873         1.113988        -0.394031
 C        -2.445891         0.253442         0.525159
 H        -0.019471         0.538181        -0.807886
 H        -0.600710         2.517482         1.799088
 H        -1.619565         2.585811         0.260473
 H        -0.752544         0.782688         3.093177
 H        -1.781827        -0.607917         2.552373
 H        -4.204053         0.852429         2.655632
 H        -3.700197         2.604442         2.558415
 H        -5.154054         1.228248         0.333876
 H        -4.219422         2.780539         0.341424
 H        -2.791673        -0.779463         0.493262
