19
Iteration:  3409charge 0 multiplicity 1
 O         0.082613        -0.013472        -0.032012
 C        -0.998236         0.564689         0.673980
 C        -1.212692         2.082185         1.070303
 C        -2.315103         1.244600         1.784969
 C        -1.296866         0.234511         2.203702
 C        -3.779617         1.763179         2.066460
 C        -4.397930         1.502427         0.539068
 O        -3.423871         1.102660        -0.415218
 C        -2.441288         0.308666         0.497995
 H        -0.295930        -0.347533        -0.846610
 H        -0.467945         2.457944         1.780914
 H        -1.638862         2.885518         0.407957
 H        -0.450074         0.419246         2.790487
 H        -1.627799        -0.796106         2.396002
 H        -4.354174         1.171554         2.819253
 H        -3.919264         2.816440         2.360907
 H        -5.267338         0.808368         0.746295
 H        -4.870708         2.397551         0.098331
 H        -2.816654        -0.680482         0.698158
