19
Iteration:  1621charge 0 multiplicity 1
 O        -0.032341         0.028133        -0.174951
 C        -0.980655         0.548905         0.785069
 C        -1.266836         2.113092         1.138530
 C        -2.424732         1.071088         1.795814
 C        -1.383470         0.021386         2.235823
 C        -3.814369         1.704557         2.076275
 C        -4.298419         1.705981         0.475596
 O        -3.207865         1.305953        -0.361621
 C        -2.461468         0.285623         0.441805
 H        -0.070902        -0.953485        -0.123456
 H        -0.630049         2.736001         1.768876
 H        -1.605915         2.506275         0.155210
 H        -0.511366         0.213725         2.928106
 H        -1.799954        -1.078688         2.319437
 H        -4.335530         1.182553         2.825988
 H        -3.544892         2.717893         2.375354
 H        -5.061490         0.917872         0.265999
 H        -4.720917         2.679154         0.219567
 H        -2.788953        -0.701601         0.595009
