19
Iteration:  3427
 O         0.064441         0.080090        -0.107677
 C        -0.939559         0.551752         0.752101
 C        -1.039413         1.978783         1.121727
 C        -2.390056         1.271474         1.718314
 C        -1.265715         0.146169         2.276014
 C        -3.813629         1.799772         1.917294
 C        -4.505885         1.464077         0.613339
 O        -3.401273         1.056388        -0.355624
 C        -2.535826         0.447330         0.488583
 H        -0.340146        -0.096811        -0.960194
 H        -0.309128         2.339007         1.835366
 H        -1.035825         2.504796         0.211752
 H        -0.631053         0.713518         3.010009
 H        -1.704565        -0.822664         2.426937
 H        -4.140858         1.296373         2.841945
 H        -3.814606         2.864963         2.113545
 H        -5.135638         0.575865         0.662495
 H        -5.186424         2.121158         0.145185
 H        -2.904621        -0.626982         0.613290
