19
Iteration:  3892
 O         0.176860         0.257500        -0.077927
 C        -1.010062         0.548222         0.603069
 C        -1.361636         1.890996         1.009948
 C        -2.450820         1.101155         1.791219
 C        -1.318241         0.231073         2.215089
 C        -3.773705         1.739595         2.037906
 C        -4.133243         1.871576         0.527192
 O        -3.441135         0.861220        -0.310365
 C        -2.590695         0.176572         0.588693
 H        -0.119221        -0.213912        -0.866458
 H        -0.631974         2.298515         1.722335
 H        -1.602536         2.661653         0.252596
 H        -0.693283         0.721928         3.016156
 H        -1.436544        -0.788082         2.586666
 H        -4.545493         1.192063         2.614534
 H        -3.715730         2.764356         2.383358
 H        -5.188362         1.784658         0.579812
 H        -4.073525         2.786783         0.039825
 H        -2.580526        -0.863267         0.742384
