19
Iteration:  1613charge 0 multiplicity 1
 O        -0.013934         0.071423        -0.118335
 C        -1.002369         0.474363         0.708723
 C        -1.321396         1.997219         1.137260
 C        -2.365106         1.103041         1.841226
 C        -1.338859         0.039711         2.242691
 C        -3.787672         1.724409         1.994505
 C        -4.359764         1.711577         0.544765
 O        -3.185807         1.263062        -0.384706
 C        -2.477790         0.375484         0.451516
 H         0.153980        -0.888946        -0.270661
 H        -0.578155         2.626936         1.686256
 H        -1.646962         2.600239         0.318482
 H        -0.558715         0.176889         2.945511
 H        -1.900025        -0.908065         2.326103
 H        -4.410634         1.073700         2.666197
 H        -3.647349         2.700625         2.452036
 H        -5.221301         1.006717         0.445288
 H        -4.594779         2.775927         0.157841
 H        -3.034200        -0.654824         0.407119
