19
Iteration:  1652charge 0 multiplicity 1
 O         0.042736         0.017639        -0.102686
 C        -1.059641         0.464074         0.686539
 C        -1.190937         1.989927         1.277595
 C        -2.360580         1.187460         1.789522
 C        -1.314116         0.096556         2.234939
 C        -3.805253         1.656104         1.970015
 C        -4.386515         1.705276         0.520195
 O        -3.287844         1.300546        -0.411656
 C        -2.483331         0.361791         0.415747
 H        -0.255968        -0.843973        -0.472024
 H        -0.413010         2.358517         1.934645
 H        -1.493295         2.728946         0.459825
 H        -0.309896         0.343452         2.727595
 H        -1.713803        -0.879732         2.609380
 H        -4.363931         1.041823         2.664793
 H        -3.908892         2.681297         2.459017
 H        -5.145183         0.930248         0.380823
 H        -4.825823         2.612443         0.243009
 H        -2.914787        -0.626730         0.617920
