19
Iteration:   743charge 0 multiplicity 1
 O         0.004567        -0.115176        -0.079570
 C        -0.930963         0.529774         0.735513
 C        -1.126014         2.032757         1.041991
 C        -2.387211         1.200037         1.732163
 C        -1.427468         0.260828         2.376589
 C        -3.772375         1.707536         1.954422
 C        -4.419045         1.537078         0.523931
 O        -3.373336         1.152858        -0.381070
 C        -2.435262         0.390815         0.402606
 H         0.853852         0.284799         0.010980
 H        -0.573570         2.517965         1.896230
 H        -1.471165         2.674842         0.272333
 H        -0.919768         0.926983         3.135301
 H        -1.669020        -0.732615         2.697800
 H        -4.193050         1.219156         2.808431
 H        -3.778785         2.806634         2.098220
 H        -5.260093         0.861884         0.763741
 H        -4.792591         2.544803         0.285627
 H        -2.793336        -0.660691         0.321226
