19
Iteration:  3604
 O         0.064197         0.246833        -0.122270
 C        -1.028582         0.563066         0.672617
 C        -1.256964         2.010264         1.017006
 C        -2.370933         1.188309         1.778890
 C        -1.330817         0.151394         2.237903
 C        -3.740768         1.753540         1.980793
 C        -4.245637         1.749095         0.504146
 O        -3.398799         0.855866        -0.279487
 C        -2.516850         0.194050         0.615858
 H        -0.241969         0.120315        -1.037947
 H        -0.553617         2.414893         1.710834
 H        -1.693340         2.640269         0.216871
 H        -0.647940         0.460183         3.075655
 H        -1.917450        -0.804719         2.553481
 H        -4.297364         1.064479         2.636928
 H        -3.822360         2.754506         2.448899
 H        -5.329642         1.566328         0.377195
 H        -3.928109         2.659771         0.086518
 H        -2.800887        -0.879129         0.810195
