19
Iteration:  4667
 O         0.104125         0.032289        -0.081648
 C        -0.951399         0.557798         0.656833
 C        -1.336129         2.001051         1.103337
 C        -2.368157         1.069762         1.773070
 C        -1.270273         0.272715         2.362887
 C        -3.772223         1.745033         1.964882
 C        -4.364075         1.544851         0.451151
 O        -3.331209         1.157046        -0.299571
 C        -2.540815         0.293560         0.489911
 H        -0.020026         0.362845        -0.973796
 H        -0.531017         2.350946         1.746455
 H        -1.766169         2.646536         0.359767
 H        -0.677166         0.907802         3.019534
 H        -1.485365        -0.828216         2.592220
 H        -4.494960         1.238155         2.660409
 H        -3.727310         2.848849         2.025177
 H        -5.212890         0.818729         0.583001
 H        -4.806564         2.518863         0.105114
 H        -2.877059        -0.753921         0.496004
