19
Iteration:   682charge 0 multiplicity 1
 O         0.069712        -0.025280         0.013192
 C        -0.881456         0.523169         0.757170
 C        -1.307178         1.982859         1.105780
 C        -2.438698         1.097330         1.745293
 C        -1.311695         0.202384         2.291928
 C        -3.650138         1.869251         1.874592
 C        -4.376764         1.617108         0.572695
 O        -3.390905         1.122280        -0.368269
 C        -2.549397         0.265105         0.392571
 H         0.119124         0.611564        -0.669792
 H        -0.852115         2.522127         1.956393
 H        -1.522571         2.748656         0.302480
 H        -0.789816         0.726270         3.136930
 H        -1.581960        -0.859732         2.480261
 H        -4.178459         1.582067         2.839448
 H        -3.541603         2.965512         1.854535
 H        -5.143449         0.776491         0.588852
 H        -4.852385         2.438905         0.042599
 H        -2.807094        -0.798756         0.406499
