19
Iteration:  3511
 O         0.154305        -0.050736        -0.006522
 C        -0.942433         0.484974         0.656680
 C        -1.185533         2.026159         0.911839
 C        -2.369606         1.213751         1.725083
 C        -1.273391         0.331792         2.183093
 C        -3.854892         1.615450         2.084463
 C        -4.429072         1.672030         0.580401
 O        -3.459634         1.076581        -0.320915
 C        -2.521457         0.361313         0.550055
 H         0.344026         0.457632        -0.827461
 H        -0.292030         2.445053         1.489763
 H        -1.431222         2.624893         0.011497
 H        -0.620109         0.844517         2.961170
 H        -1.602996        -0.600782         2.690260
 H        -4.332294         0.727767         2.523298
 H        -4.064423         2.508630         2.708369
 H        -5.262157         0.970602         0.548060
 H        -4.566795         2.766023         0.354936
 H        -2.846551        -0.668481         0.616510
