19
Iteration:   704
 O         0.113370        -0.007385         0.010742
 C        -0.992559         0.481335         0.696045
 C        -1.247319         2.004094         1.041629
 C        -2.417154         1.231366         1.854214
 C        -1.331951         0.004817         2.166579
 C        -3.793100         2.000636         1.922870
 C        -4.417297         1.514293         0.533915
 O        -3.344447         1.107229        -0.368483
 C        -2.493404         0.356497         0.567627
 H         0.612933         0.848261        -0.259232
 H        -0.388608         2.332173         1.616678
 H        -1.495083         2.720008         0.182363
 H        -0.499719         0.442652         2.740353
 H        -1.585201        -1.074609         2.331777
 H        -4.521329         1.584875         2.681623
 H        -3.664241         3.104209         1.937126
 H        -5.059346         0.639370         0.453365
 H        -4.932139         2.257454        -0.069165
 H        -2.933413        -0.613412         0.854990
