19
Iteration:  1081
 O         0.120262         0.017230         0.027578
 C        -0.966802         0.524908         0.709866
 C        -1.261393         1.938760         0.946982
 C        -2.438305         1.219213         1.755482
 C        -1.305566         0.192436         2.224199
 C        -3.787420         1.523859         2.122154
 C        -4.311470         1.909772         0.464956
 O        -3.365733         1.109273        -0.350122
 C        -2.543911         0.381483         0.475884
 H         0.232592        -0.910522        -0.118671
 H        -0.585188         2.529483         1.466674
 H        -1.697314         2.563917         0.089191
 H        -0.524320         0.589049         2.939832
 H        -1.483010        -0.892799         2.382932
 H        -4.372296         0.610317         2.417345
 H        -4.086065         2.394685         2.801333
 H        -5.285812         1.481704         0.249972
 H        -4.343808         2.941423         0.159944
 H        -3.020907        -0.649981         0.515920
