19
Iteration:   546
 O         0.128135         0.110396        -0.063997
 C        -1.072051         0.503716         0.673969
 C        -1.239944         1.993489         1.107172
 C        -2.441304         1.161179         1.773545
 C        -1.238995         0.080014         2.209294
 C        -3.811610         1.816706         1.950991
 C        -4.244005         1.945774         0.407530
 O        -3.481817         0.835110        -0.314554
 C        -2.546563         0.249858         0.611085
 H         0.904041         0.669186         0.279172
 H        -0.534139         2.306001         1.846074
 H        -1.591309         2.673226         0.271818
 H        -0.391221         0.500317         2.795817
 H        -1.632224        -1.002813         2.328022
 H        -4.502555         1.129400         2.365506
 H        -3.898293         2.627936         2.659491
 H        -5.267893         1.809914         0.212555
 H        -3.904653         2.901348        -0.157787
 H        -2.873226        -0.802827         0.786928
