19
Iteration:   422
 O         0.079337         0.121026        -0.084302
 C        -0.985771         0.563781         0.708122
 C        -1.176007         1.937512         1.161490
 C        -2.388627         1.250662         1.782503
 C        -1.391503         0.110681         2.255281
 C        -3.771106         1.874278         1.961039
 C        -4.359033         1.672238         0.515082
 O        -3.358835         0.977345        -0.414693
 C        -2.521889         0.329301         0.485509
 H         0.091634        -0.876433        -0.174769
 H        -0.343506         2.321079         1.858075
 H        -1.248890         2.754107         0.445306
 H        -0.533761         0.193576         3.003332
 H        -1.984138        -0.862015         2.248019
 H        -4.269798         1.249366         2.771357
 H        -3.729513         2.886786         2.395458
 H        -5.276727         0.952013         0.506654
 H        -4.604645         2.596085        -0.015747
 H        -2.976058        -0.682977         0.647845
