19
Iteration:  1078
 O         0.108229         0.006398         0.002973
 C        -0.983679         0.544606         0.706738
 C        -1.260832         1.944836         0.954213
 C        -2.399494         1.222869         1.762616
 C        -1.312917         0.207011         2.224468
 C        -3.809453         1.524331         2.138149
 C        -4.331017         1.907754         0.478298
 O        -3.325486         1.113053        -0.366422
 C        -2.536224         0.338915         0.463667
 H         0.302112        -0.934141        -0.096781
 H        -0.588076         2.614664         1.517754
 H        -1.688112         2.539569         0.171274
 H        -0.557765         0.607220         2.999489
 H        -1.706438        -0.869605         2.443537
 H        -4.393772         0.661048         2.403025
 H        -4.011516         2.367289         2.815306
 H        -5.339365         1.505357         0.257806
 H        -4.438673         2.925459         0.131219
 H        -2.968960        -0.646345         0.570034
