19
Iteration:  1305
 O         0.021928         0.063091        -0.163804
 C        -1.008293         0.429515         0.731756
 C        -1.256770         1.939056         1.150985
 C        -2.370490         1.101365         1.818876
 C        -1.258174         0.052014         2.248959
 C        -3.761143         1.811375         1.911491
 C        -4.444151         1.696022         0.477927
 O        -3.265604         1.179185        -0.336890
 C        -2.559534         0.359870         0.528630
 H         0.853811         0.273028         0.363407
 H        -0.579542         2.531101         1.842358
 H        -1.679059         2.530005         0.278890
 H        -0.410348         0.414517         2.884211
 H        -1.488060        -0.980074         2.396737
 H        -4.588560         1.513289         2.708762
 H        -3.679127         2.880117         2.241161
 H        -5.353785         1.145346         0.385524
 H        -4.675916         2.703947        -0.041261
 H        -3.073424        -0.602417         0.657492
