19
Iteration:  2330
 O         0.025429        -0.161413         0.041776
 C        -0.983279         0.598765         0.597499
 C        -1.215047         2.060296         0.921921
 C        -2.352942         1.165548         1.759581
 C        -1.185427         0.278603         2.219323
 C        -3.806839         1.665322         2.066513
 C        -4.462017         1.581884         0.658443
 O        -3.391161         1.150774        -0.398555
 C        -2.547435         0.418179         0.436761
 H         0.864594         0.371784         0.172636
 H        -0.599408         2.468023         1.708502
 H        -1.548892         2.714388         0.076862
 H        -0.316850         0.842299         2.610392
 H        -1.266093        -0.899384         2.471851
 H        -4.261350         0.950805         2.756583
 H        -3.947980         2.664815         2.439518
 H        -5.153180         0.755938         0.739168
 H        -4.750156         2.564858         0.352817
 H        -3.015248        -0.530795         0.590039
