19
Iteration:   727
 O         0.051665        -0.018695        -0.028837
 C        -1.012784         0.491102         0.743193
 C        -1.111301         1.967592         1.099107
 C        -2.356163         1.298240         1.695596
 C        -1.333153         0.181616         2.273711
 C        -3.773149         1.832261         1.940189
 C        -4.468173         1.511890         0.538599
 O        -3.364224         1.138372        -0.399300
 C        -2.538099         0.364205         0.525746
 H         0.783509         0.563410         0.004295
 H        -0.294744         2.245163         1.746746
 H        -1.272501         2.584882         0.136962
 H        -0.478300         0.366666         2.898098
 H        -1.956499        -0.753410         2.377601
 H        -4.352120         1.109385         2.603281
 H        -3.707738         2.905665         2.210521
 H        -5.103844         0.606542         0.451350
 H        -5.008230         2.272637        -0.028977
 H        -2.973412        -0.616664         0.791080
