19
Iteration:  2989
 O         0.054674         0.237601        -0.201787
 C        -1.051357         0.488110         0.746611
 C        -1.382109         2.020514         1.086545
 C        -2.367668         1.193939         1.817496
 C        -1.233538         0.157838         2.228832
 C        -3.718155         1.745397         2.041065
 C        -4.224987         1.852822         0.482441
 O        -3.458760         0.859396        -0.402685
 C        -2.553874         0.166733         0.558715
 H         0.516906        -0.513092         0.257418
 H        -0.485318         2.462595         1.579220
 H        -1.755520         2.592813         0.241983
 H        -0.325922         0.504823         2.925382
 H        -1.642491        -0.794916         2.482103
 H        -4.428489         1.163169         2.711565
 H        -3.583976         2.776100         2.528346
 H        -5.242927         1.692025         0.364038
 H        -3.902821         2.863734         0.254663
 H        -2.788973        -0.846148         0.910737
