19
Iteration:  1661charge 0 multiplicity 1
 O         0.128367         0.050573        -0.066924
 C        -1.028055         0.443457         0.752137
 C        -1.131780         1.990271         1.190838
 C        -2.360656         1.263353         1.762197
 C        -1.308910        -0.009383         2.230433
 C        -3.759034         1.632150         2.030200
 C        -4.399817         1.675250         0.454695
 O        -3.358672         1.309912        -0.404099
 C        -2.611643         0.381391         0.460221
 H        -0.241309        -0.658418        -0.635204
 H        -0.446048         2.362010         1.932932
 H        -1.361689         2.786553         0.411376
 H        -0.426382         0.377652         2.787213
 H        -1.621435        -0.921336         2.594577
 H        -4.398689         0.930497         2.627302
 H        -3.936853         2.712022         2.304177
 H        -5.287037         1.031286         0.475467
 H        -4.645587         2.658127         0.157594
 H        -3.220252        -0.594235         0.446732
