19
Iteration:  2814charge 0 multiplicity 1
 O         0.003871         0.008731        -0.049976
 C        -0.942928         0.537915         0.701990
 C        -1.129406         2.039341         1.029460
 C        -2.361646         1.243268         1.710764
 C        -1.226530         0.305067         2.234205
 C        -3.781379         1.740332         1.964166
 C        -4.376037         1.474422         0.589661
 O        -3.450064         1.144833        -0.305519
 C        -2.484753         0.293981         0.448296
 H        -0.369506        -0.643633        -0.708176
 H        -0.402229         2.555215         1.787538
 H        -1.571529         2.767365         0.257035
 H        -0.521949         0.559184         3.090625
 H        -1.587423        -0.674502         2.444121
 H        -4.287327         1.124094         2.768930
 H        -3.862363         2.785822         2.366590
 H        -5.273372         0.818469         0.730162
 H        -4.973160         2.316633         0.197913
 H        -2.851193        -0.712366         0.742777
