19
Iteration:  4701charge 0 multiplicity 1
 O         0.006622         0.115846        -0.040901
 C        -0.964934         0.640894         0.727924
 C        -1.264754         2.053187         1.055866
 C        -2.367285         1.146676         1.829318
 C        -1.247870         0.198164         2.233541
 C        -3.815151         1.608532         1.992544
 C        -4.278493         1.651901         0.452727
 O        -3.339604         0.991540        -0.385982
 C        -2.537461         0.366987         0.564514
 H        -0.329122        -0.489318        -0.698631
 H        -0.493668         2.611447         1.571220
 H        -1.625242         2.713785         0.221207
 H        -0.681284         0.339878         3.111973
 H        -1.422217        -0.931452         2.415395
 H        -4.502421         1.097933         2.652207
 H        -3.946908         2.711672         2.262236
 H        -5.205056         1.100565         0.121668
 H        -4.297536         2.720573         0.178365
 H        -2.928944        -0.627308         0.855276
