19
Iteration:  2348charge 0 multiplicity 1
 O         0.056972        -0.152174        -0.103826
 C        -0.960200         0.486826         0.707198
 C        -1.388827         2.109931         1.052334
 C        -2.352929         1.214388         1.735636
 C        -1.219243         0.303411         2.195495
 C        -3.730227         1.685510         2.077297
 C        -4.397313         1.610497         0.582482
 O        -3.394191         1.144154        -0.342087
 C        -2.511605         0.311912         0.492651
 H         0.875830         0.378086        -0.261024
 H        -0.557194         2.639999         1.587805
 H        -1.844716         2.694322         0.203588
 H        -0.559239         0.780579         2.884566
 H        -1.588915        -0.610320         2.448179
 H        -4.228555         1.070393         2.802961
 H        -3.693876         2.750175         2.439749
 H        -5.283870         0.922978         0.372593
 H        -4.735888         2.587950         0.108993
 H        -2.743055        -0.803413         0.564553
