19
Iteration:  1117charge 0 multiplicity 1
 O         0.242399         0.110176         0.008845
 C        -0.981033         0.481131         0.658587
 C        -1.351026         1.982356         1.057763
 C        -2.431929         1.082116         1.700566
 C        -1.383629         0.194765         2.246838
 C        -3.770030         1.686229         2.089104
 C        -4.225063         2.031332         0.523985
 O        -3.493862         0.916250        -0.355710
 C        -2.532730         0.290159         0.425202
 H        -0.005531        -0.731543        -0.394229
 H        -0.591803         2.358489         1.833703
 H        -1.570488         2.756744         0.310527
 H        -0.648498         0.587028         2.893373
 H        -1.517960        -0.865689         2.335970
 H        -4.333449         0.821810         2.577320
 H        -3.701591         2.528194         2.813904
 H        -5.298938         1.863375         0.276934
 H        -3.972018         3.087350         0.156160
 H        -2.708954        -0.846981         0.456821
