19
Iteration:  2425charge 0 multiplicity 1
 O        -0.032089         0.054461        -0.189623
 C        -0.961611         0.613398         0.754908
 C        -1.350058         2.070441         0.986385
 C        -2.407152         1.156900         1.857035
 C        -1.233629         0.228075         2.240569
 C        -3.787191         1.672534         2.083371
 C        -4.154945         1.832665         0.465265
 O        -3.516505         0.861363        -0.260760
 C        -2.467709         0.221435         0.482825
 H         0.931293         0.242603        -0.294142
 H        -0.783618         2.732567         1.673164
 H        -1.873172         2.552883         0.087272
 H        -0.519379         0.596528         2.931167
 H        -1.382802        -0.779894         2.398359
 H        -4.503141         1.118038         2.673500
 H        -3.760480         2.759548         2.464214
 H        -5.226525         1.728074         0.180221
 H        -3.559943         2.710982         0.124192
 H        -2.686449        -0.911294         0.660062
