19
Iteration:   355
 O         0.066787         0.007603         0.076635
 C        -1.008931         0.544411         0.711940
 C        -1.256370         2.032172         1.017827
 C        -2.378804         1.184280         1.691774
 C        -1.408194         0.221528         2.236205
 C        -3.659184         1.688195         2.071302
 C        -4.354433         1.647707         0.534120
 O        -3.338428         1.123307        -0.436494
 C        -2.490250         0.365901         0.438641
 H        -0.386307        -0.750545        -0.260302
 H        -0.472652         2.401886         1.749852
 H        -1.536053         2.706773         0.183496
 H        -0.616718         0.511031         2.985978
 H        -1.744669        -0.825939         2.389731
 H        -4.193959         1.073455         2.848607
 H        -3.750176         2.755991         2.363461
 H        -5.191811         0.890887         0.473729
 H        -4.694346         2.574483         0.111745
 H        -2.863509        -0.676391         0.623257
