19
Iteration:   969
 O         0.180422         0.045634         0.020191
 C        -0.958916         0.501864         0.715343
 C        -1.241730         1.924958         1.084337
 C        -2.423606         1.168897         1.696496
 C        -1.446478         0.204041         2.240934
 C        -3.675304         1.766492         2.018117
 C        -4.395379         1.589536         0.558632
 O        -3.405144         1.201404        -0.394258
 C        -2.495758         0.366984         0.393515
 H         0.104316        -0.608184        -0.753074
 H        -0.475794         2.449542         1.732692
 H        -1.473621         2.512306         0.246403
 H        -0.734764         0.560667         3.032973
 H        -1.942021        -0.749572         2.658572
 H        -4.282672         1.184936         2.749937
 H        -3.633074         2.799599         2.467763
 H        -5.174433         0.832150         0.712601
 H        -4.864874         2.502970         0.197602
 H        -2.752779        -0.742617         0.583319
