19
Iteration:  1362
 O        -0.046516        -0.072088        -0.115988
 C        -0.938672         0.546356         0.731278
 C        -1.166981         2.027737         1.119288
 C        -2.368876         1.179782         1.774222
 C        -1.331408         0.151279         2.217829
 C        -3.812972         1.704012         2.056889
 C        -4.359933         1.664201         0.480235
 O        -3.355694         1.220533        -0.366749
 C        -2.468976         0.379338         0.466637
 H         0.711475        -0.376529         0.367647
 H        -0.549741         2.481768         1.902515
 H        -1.508732         2.798311         0.343716
 H        -0.584336         0.380665         2.970756
 H        -1.692764        -0.873217         2.272270
 H        -4.366144         0.801883         2.374401
 H        -4.068448         2.618738         2.584432
 H        -5.140844         0.967520         0.395927
 H        -4.689758         2.631263         0.023945
 H        -2.779434        -0.671870         0.461729
