19
Iteration:  4823charge 0 multiplicity 1
 O         0.157460         0.216781        -0.073569
 C        -0.961109         0.535415         0.743822
 C        -1.199914         2.035196         1.079207
 C        -2.381706         1.217938         1.757246
 C        -1.305683         0.183479         2.227663
 C        -3.782415         1.619119         1.946599
 C        -4.312599         1.793755         0.463937
 O        -3.461427         0.920502        -0.341456
 C        -2.568613         0.257285         0.529431
 H        -0.042793        -0.698423        -0.360814
 H        -0.595313         2.364161         1.925972
 H        -1.455001         2.755065         0.281537
 H        -0.635077         0.546898         2.972830
 H        -1.824207        -0.831782         2.557724
 H        -4.298644         0.862764         2.501904
 H        -4.028914         2.491093         2.593499
 H        -5.364622         1.449816         0.344576
 H        -4.329795         2.847121         0.130541
 H        -2.888536        -0.725699         0.848175
