19
Iteration:  1106charge 0 multiplicity 1
 O         0.197475         0.064549         0.073997
 C        -0.957586         0.531218         0.639031
 C        -1.267582         1.985050         1.028351
 C        -2.414629         1.151192         1.720991
 C        -1.242929         0.187433         2.228321
 C        -3.821558         1.588566         2.024948
 C        -4.304413         2.021269         0.589132
 O        -3.486331         1.006684        -0.378803
 C        -2.562284         0.217873         0.413231
 H         0.204031        -0.777498        -0.336158
 H        -0.568149         2.549007         1.744606
 H        -1.685842         2.646345         0.255477
 H        -0.487489         0.449693         2.911732
 H        -1.702261        -0.755881         2.509060
 H        -4.605720         0.906579         2.470649
 H        -3.884556         2.562960         2.549952
 H        -5.383013         1.849049         0.362644
 H        -3.887620         3.034152         0.280006
 H        -2.999801        -0.836512         0.536498
