19
Iteration:  2194
 O         0.056116        -0.048495        -0.058782
 C        -0.983164         0.528050         0.700314
 C        -1.186878         1.992496         0.919979
 C        -2.358494         1.234830         1.762316
 C        -1.252893         0.260597         2.293490
 C        -3.770061         1.637842         2.049397
 C        -4.421612         1.713229         0.535521
 O        -3.455147         1.064103        -0.341795
 C        -2.541610         0.352442         0.513038
 H         0.670239         0.659428        -0.259908
 H        -0.363971         2.529411         1.510036
 H        -1.571819         2.468155         0.016729
 H        -0.401504         0.659195         2.870367
 H        -1.546885        -0.639055         2.739158
 H        -4.140981         0.723322         2.537307
 H        -4.018083         2.494432         2.660700
 H        -5.313931         1.138824         0.499632
 H        -4.496602         2.725425         0.066616
 H        -2.738510        -0.687821         0.614349
