19
Iteration:   225
 O         0.090492         0.183008        -0.040292
 C        -1.030212         0.560524         0.714044
 C        -1.221752         2.060954         1.001377
 C        -2.338292         1.174706         1.776756
 C        -1.404806         0.139347         2.314399
 C        -3.788852         1.688926         1.973820
 C        -4.075276         1.889092         0.532386
 O        -3.537291         0.821127        -0.394780
 C        -2.552144         0.262075         0.503866
 H        -0.106317        -0.804273         0.050730
 H        -0.458729         2.609275         1.685334
 H        -1.532319         2.724568         0.118545
 H        -0.645824         0.568245         3.079734
 H        -1.917129        -0.888241         2.340641
 H        -4.341476         0.814736         2.402705
 H        -3.778216         2.647270         2.491603
 H        -5.145158         1.938927         0.330843
 H        -3.633730         2.756886         0.050222
 H        -2.836771        -0.782924         0.744636
