19
Iteration:  4779
 O         0.261290         0.214830         0.057280
 C        -0.935715         0.582957         0.664634
 C        -1.484188         2.014989         0.976962
 C        -2.490058         1.078761         1.683388
 C        -1.287659         0.180982         2.148797
 C        -3.741156         1.643313         2.032901
 C        -4.194029         1.897563         0.536342
 O        -3.443247         0.935701        -0.322739
 C        -2.629135         0.179905         0.547345
 H         0.521346        -0.677137         0.353360
 H        -0.874605         2.656531         1.605901
 H        -1.920242         2.510899         0.067130
 H        -0.664538         0.641777         2.840081
 H        -1.391895        -0.963698         2.179915
 H        -4.422036         0.994671         2.529530
 H        -3.687175         2.576769         2.674679
 H        -5.266635         1.925785         0.274824
 H        -3.821798         2.813100         0.097305
 H        -2.894175        -0.868726         0.676304
