19
Iteration:  3095charge 0 multiplicity 1
 O         0.008103        -0.058076        -0.187375
 C        -0.952336         0.494233         0.737486
 C        -1.271721         1.968868         0.952971
 C        -2.336913         1.245357         1.789443
 C        -1.317298         0.348790         2.330997
 C        -3.774218         1.508399         2.053520
 C        -4.368022         1.763939         0.521939
 O        -3.357351         1.116618        -0.333728
 C        -2.514595         0.336365         0.538629
 H         0.817436         0.503014        -0.194374
 H        -0.587393         2.579032         1.530195
 H        -1.736260         2.518737         0.165202
 H        -0.451330         0.624221         2.830241
 H        -1.551405        -0.638328         2.738185
 H        -4.282596         0.671772         2.467261
 H        -3.945144         2.401974         2.541869
 H        -5.368384         1.185446         0.367557
 H        -4.413927         2.818188         0.096758
 H        -2.950304        -0.636315         0.826757
