19
Iteration:  4915charge 0 multiplicity 1
 O         0.162991         0.031164         0.050099
 C        -0.932828         0.616997         0.737983
 C        -1.204220         2.086280         0.957071
 C        -2.344586         1.239462         1.734429
 C        -1.346335         0.064225         2.212839
 C        -3.758128         1.698686         1.928378
 C        -4.379556         1.623302         0.577773
 O        -3.486628         1.045218        -0.388393
 C        -2.543986         0.335576         0.494796
 H         0.600772         0.767174        -0.412249
 H        -0.438210         2.466522         1.726653
 H        -1.766207         2.704181         0.210772
 H        -0.781809         0.287911         3.239135
 H        -1.581068        -0.996756         2.275253
 H        -4.309001         0.956773         2.594373
 H        -3.981248         2.605484         2.486551
 H        -5.321692         1.087477         0.829033
 H        -4.735117         2.599333         0.195127
 H        -2.865691        -0.716575         0.680153
