19
Iteration:  2618charge 0 multiplicity 1
 O         0.112921        -0.090734        -0.038573
 C        -0.953707         0.558606         0.623032
 C        -1.226167         2.010261         0.933723
 C        -2.374260         1.206621         1.727045
 C        -1.211480         0.318047         2.204795
 C        -3.842345         1.688281         2.073053
 C        -4.446745         1.714349         0.585673
 O        -3.482248         1.117142        -0.273694
 C        -2.530799         0.218020         0.471146
 H         0.849122         0.556805        -0.024490
 H        -0.513456         2.562717         1.559882
 H        -1.602578         2.611937         0.067497
 H        -0.319613         0.585503         2.899088
 H        -1.308908        -0.703051         2.570120
 H        -4.178688         0.958191         2.769605
 H        -3.839295         2.631766         2.633264
 H        -5.328725         0.968678         0.427303
 H        -4.521945         2.658268         0.041906
 H        -2.785929        -0.867746         0.763079
