19
Iteration:   928charge 0 multiplicity 1
 O         0.088309        -0.130321         0.053469
 C        -0.981961         0.526021         0.687076
 C        -1.279111         2.059915         1.064746
 C        -2.392874         1.219913         1.839782
 C        -1.244556         0.197257         2.192887
 C        -3.833654         1.645171         2.005011
 C        -4.398285         1.708482         0.449944
 O        -3.332064         1.148455        -0.395491
 C        -2.461966         0.414073         0.536329
 H        -0.286477        -0.218032        -0.838604
 H        -0.557165         2.529187         1.734420
 H        -1.696542         2.664719         0.275260
 H        -0.374375         0.615887         2.705352
 H        -1.400102        -0.801056         2.383375
 H        -4.407114         0.889505         2.575834
 H        -3.945766         2.633887         2.562856
 H        -5.211225         0.965435         0.424624
 H        -4.666780         2.670388         0.076829
 H        -2.915447        -0.530513         0.405072
