19
Iteration:  2607charge 0 multiplicity 1
 O         0.096188        -0.104535        -0.040499
 C        -0.946550         0.538566         0.674820
 C        -1.252472         2.072976         0.917591
 C        -2.382672         1.190902         1.684823
 C        -1.159120         0.217916         2.205680
 C        -3.849954         1.717821         2.056640
 C        -4.522901         1.627454         0.595036
 O        -3.425931         1.095381        -0.248010
 C        -2.455463         0.323203         0.488254
 H         0.839752         0.492134        -0.115064
 H        -0.440754         2.420561         1.531603
 H        -1.522708         2.784376         0.109294
 H        -0.421828         0.747369         2.897987
 H        -1.508336        -0.796153         2.362804
 H        -4.402615         1.283995         2.858031
 H        -3.766566         2.779191         2.187874
 H        -5.576125         1.181696         0.575787
 H        -4.703932         2.669084         0.355024
 H        -2.870300        -0.732668         0.514590
