19
Iteration:   458
 O         0.125925        -0.024311         0.028594
 C        -0.968979         0.515676         0.730450
 C        -1.269465         1.957743         1.001834
 C        -2.417257         1.137415         1.766625
 C        -1.239506         0.266609         2.269030
 C        -3.858917         1.678068         2.038756
 C        -4.340513         1.733867         0.535811
 O        -3.332047         1.174937        -0.408541
 C        -2.530421         0.363072         0.440467
 H        -0.454344        -0.639352        -0.508970
 H        -0.558287         2.450186         1.660801
 H        -1.616550         2.536693         0.085356
 H        -0.495999         0.537695         3.039518
 H        -1.539766        -0.850895         2.560509
 H        -4.464957         0.878558         2.417716
 H        -3.919043         2.598637         2.594469
 H        -5.227797         1.146476         0.428408
 H        -4.532676         2.764588         0.107371
 H        -2.859882        -0.695654         0.436084
