19
Iteration:  4493
 O         0.080169         0.077617        -0.018108
 C        -1.005881         0.567144         0.689566
 C        -1.403726         2.049261         0.904897
 C        -2.380464         1.148271         1.739283
 C        -1.251546         0.201592         2.261573
 C        -3.816190         1.604886         1.985016
 C        -4.290954         1.801614         0.535318
 O        -3.356369         0.942061        -0.335795
 C        -2.501839         0.237041         0.570830
 H         0.781573         0.758749        -0.029908
 H        -0.649532         2.791728         1.336982
 H        -1.866107         2.663283         0.171913
 H        -0.642037         0.647838         3.022649
 H        -1.277274        -0.870003         2.330466
 H        -4.499168         0.987499         2.598144
 H        -3.842148         2.562177         2.577343
 H        -5.351610         1.702568         0.383227
 H        -4.048444         2.854119         0.320573
 H        -2.857822        -0.784340         0.846248
