19
Iteration:  4460
 O         0.203031         0.060142         0.016318
 C        -0.967753         0.520449         0.660294
 C        -1.346056         2.006551         0.937333
 C        -2.429055         1.103688         1.675668
 C        -1.231221         0.300133         2.270888
 C        -3.873712         1.611793         2.006192
 C        -4.270155         1.933569         0.578649
 O        -3.511871         0.892724        -0.336019
 C        -2.532755         0.222955         0.494653
 H         0.760015         0.889300         0.003786
 H        -0.606065         2.477349         1.645716
 H        -1.814293         2.503271         0.160775
 H        -0.662292         1.005101         2.873592
 H        -1.139435        -0.695465         2.598015
 H        -4.436309         0.767887         2.464122
 H        -3.761011         2.472408         2.696384
 H        -5.336807         1.833549         0.415867
 H        -3.909008         2.883317         0.213874
 H        -2.827979        -0.826998         0.691020
