19
Iteration:  3105
 O        -0.062260        -0.002438        -0.145669
 C        -1.016888         0.504034         0.687762
 C        -1.232183         2.024012         0.966676
 C        -2.329208         1.221233         1.759551
 C        -1.239116         0.235695         2.347811
 C        -3.762532         1.644484         1.993507
 C        -4.368189         1.716065         0.557373
 O        -3.330684         1.047527        -0.335593
 C        -2.503576         0.315168         0.541453
 H         0.693986         0.635241        -0.116315
 H        -0.590827         2.543736         1.682236
 H        -1.540497         2.613407         0.110166
 H        -0.543612         0.694747         3.023917
 H        -1.845803        -0.666441         2.634590
 H        -4.213322         0.788031         2.487698
 H        -3.976393         2.461764         2.642448
 H        -5.418975         1.195482         0.380809
 H        -4.486532         2.798048         0.201802
 H        -2.847656        -0.760059         0.534166
