19
Iteration:  4617
 O         0.211501        -0.044043         0.041124
 C        -0.970956         0.571748         0.648294
 C        -1.190486         2.103516         1.005208
 C        -2.332211         1.200053         1.774024
 C        -1.377689         0.198770         2.163025
 C        -3.764376         1.681738         1.937181
 C        -4.530865         1.524285         0.602633
 O        -3.424766         1.089558        -0.374659
 C        -2.528547         0.384905         0.518654
 H         0.818371         0.727117         0.196586
 H        -0.582567         2.586980         1.797178
 H        -1.376706         2.753052         0.064257
 H        -0.477028         0.435806         2.658121
 H        -1.779439        -0.803368         2.306596
 H        -4.291054         1.168182         2.742545
 H        -3.759103         2.778513         2.140269
 H        -5.339817         0.796936         0.634511
 H        -5.026536         2.443754         0.402879
 H        -2.907019        -0.641292         0.737814
