19
Iteration:  3656charge 0 multiplicity 1
 O         0.077524        -0.096573         0.061203
 C        -1.072956         0.530165         0.705946
 C        -1.307107         2.125038         0.969300
 C        -2.400870         1.150999         1.780844
 C        -1.158015         0.332454         2.146277
 C        -3.834330         1.568716         2.021839
 C        -4.362925         1.625097         0.620857
 O        -3.302479         1.173130        -0.355857
 C        -2.502637         0.380900         0.457305
 H        -0.144234        -0.369249        -0.841945
 H        -0.641572         2.575765         1.692649
 H        -1.726715         2.692429         0.118706
 H        -0.256287         0.740682         2.664756
 H        -1.351789        -0.685729         2.281767
 H        -4.281133         0.753204         2.600282
 H        -3.927502         2.483276         2.570309
 H        -5.212078         0.941979         0.341394
 H        -4.716456         2.593278         0.264350
 H        -2.948344        -0.548898         0.735604
