19
Iteration:  1733charge 0 multiplicity 1
 O         0.124704        -0.014134         0.027568
 C        -1.036906         0.495066         0.653549
 C        -1.309746         2.019235         1.090491
 C        -2.434010         1.035682         1.770298
 C        -1.179410         0.060585         2.190700
 C        -3.895970         1.694642         2.031238
 C        -4.297106         1.956638         0.540125
 O        -3.367812         1.125499        -0.309692
 C        -2.536009         0.293274         0.417409
 H         0.231124         0.525079        -0.746458
 H        -0.578157         2.466059         1.799921
 H        -1.493418         2.652214         0.246817
 H        -0.423424         0.431596         2.908571
 H        -1.455709        -1.059630         2.441534
 H        -4.523652         0.878692         2.407136
 H        -4.009105         2.593395         2.597359
 H        -5.274345         1.718098         0.120823
 H        -4.021728         3.036847         0.277681
 H        -2.769951        -0.732449         0.277571
