19
Iteration:  2393
 O        -0.044476         0.161391        -0.263596
 C        -1.060543         0.476746         0.720972
 C        -1.263713         1.947330         1.080821
 C        -2.360869         1.268087         1.860673
 C        -1.193163         0.218165         2.318412
 C        -3.729185         1.761968         2.001778
 C        -4.206264         1.711826         0.465926
 O        -3.419069         0.904713        -0.337091
 C        -2.600043         0.188031         0.557996
 H         0.810203         0.621651        -0.130627
 H        -0.562336         2.492016         1.800968
 H        -1.552390         2.745899         0.298440
 H        -0.385193         0.675239         2.812581
 H        -1.456100        -0.735705         2.655673
 H        -4.327346         1.027927         2.512297
 H        -3.970330         2.785297         2.396005
 H        -5.321522         1.497162         0.426856
 H        -4.292895         2.726998        -0.070295
 H        -3.042820        -0.811056         0.958758
