19
Iteration:   208
 O         0.129019         0.021113        -0.025537
 C        -0.916725         0.533816         0.670180
 C        -1.367045         2.015153         1.061984
 C        -2.437665         1.216558         1.720425
 C        -1.400214         0.262365         2.248759
 C        -3.784288         1.648209         2.063581
 C        -4.179338         1.893559         0.455531
 O        -3.474391         0.882745        -0.281406
 C        -2.441150         0.312273         0.440401
 H        -0.110124        -0.849102        -0.509805
 H        -0.731157         2.542148         1.703395
 H        -1.601491         2.726978         0.305222
 H        -0.714680         0.611260         2.960954
 H        -1.737338        -0.707461         2.466308
 H        -4.355697         0.923051         2.645327
 H        -3.821273         2.632729         2.601586
 H        -5.233295         1.881407         0.104971
 H        -3.754459         2.927058         0.271627
 H        -2.574742        -0.778642         0.567947
