19
Iteration:  4857charge 0 multiplicity 1
 O         0.000481         0.036518        -0.073819
 C        -0.926094         0.579823         0.808910
 C        -1.357258         2.034399         1.065870
 C        -2.397324         1.163019         1.766619
 C        -1.203459         0.222295         2.251900
 C        -3.802519         1.596876         1.977063
 C        -4.374321         1.700557         0.481739
 O        -3.251458         1.096649        -0.354272
 C        -2.464641         0.301664         0.503849
 H        -0.593253        -0.280881        -0.794423
 H        -0.885821         2.719076         1.815988
 H        -1.706664         2.692887         0.285862
 H        -0.561741         0.776451         2.995873
 H        -1.600846        -0.744957         2.651450
 H        -4.398747         0.880374         2.514879
 H        -3.818519         2.610292         2.363407
 H        -5.293648         1.078440         0.329269
 H        -4.461212         2.637938        -0.004122
 H        -2.821803        -0.724258         0.557680
