19
Iteration:   205charge 0 multiplicity 1
 O         0.147112         0.001418        -0.029810
 C        -0.917454         0.513107         0.688446
 C        -1.377619         2.015340         1.051598
 C        -2.428785         1.199375         1.724951
 C        -1.371187         0.272230         2.243559
 C        -3.819589         1.657107         2.066695
 C        -4.206011         1.905741         0.444744
 O        -3.468645         0.906970        -0.265546
 C        -2.438641         0.311495         0.438100
 H        -0.195392        -0.756274        -0.500720
 H        -0.701060         2.530341         1.775030
 H        -1.602418         2.768660         0.315219
 H        -0.639053         0.739039         2.963620
 H        -1.720938        -0.754791         2.423351
 H        -4.371500         0.851303         2.637044
 H        -3.745852         2.583597         2.591726
 H        -5.221553         1.803452         0.069131
 H        -3.824061         2.949284         0.169693
 H        -2.599235        -0.787236         0.522484
