19
Iteration:  1950charge 0 multiplicity 1
 O        -0.021111         0.189537        -0.211983
 C        -1.066097         0.365566         0.727734
 C        -1.202273         1.936690         1.109329
 C        -2.326407         1.208092         1.765700
 C        -1.374176         0.131347         2.235412
 C        -3.774149         1.790194         1.965621
 C        -4.325515         1.625487         0.530587
 O        -3.268498         1.102854        -0.306226
 C        -2.547052         0.333222         0.508781
 H         0.744108        -0.347776         0.145894
 H        -0.280523         2.333969         1.617829
 H        -1.443376         2.707087         0.271132
 H        -0.604825         0.586029         2.877546
 H        -1.846398        -0.708113         2.813746
 H        -4.392928         1.163639         2.662814
 H        -3.665007         2.831812         2.346277
 H        -5.270762         0.991871         0.553131
 H        -4.610310         2.683558         0.317223
 H        -3.085929        -0.645179         0.693088
