19
Iteration:  3976charge 0 multiplicity 1
 O         0.145526        -0.035816         0.036434
 C        -0.950086         0.513894         0.768512
 C        -1.279688         2.010848         0.817412
 C        -2.379975         1.100951         1.721176
 C        -1.184169         0.275390         2.303807
 C        -3.791003         1.622351         2.055103
 C        -4.298779         1.757106         0.573195
 O        -3.415005         1.170858        -0.335572
 C        -2.643134         0.258291         0.453927
 H        -0.019406         0.648107        -0.668944
 H        -0.891508         2.738657         1.585324
 H        -1.754070         2.528348         0.018315
 H        -0.604344         0.870215         2.925582
 H        -1.417320        -0.798472         2.429946
 H        -4.361916         0.781834         2.462920
 H        -4.054878         2.507345         2.669656
 H        -5.220686         1.050364         0.666327
 H        -4.483760         2.844503         0.120583
 H        -3.026133        -0.842705         0.399378
