19
Iteration:  2337
 O         0.051544        -0.189246        -0.015522
 C        -0.991748         0.544051         0.584265
 C        -1.307993         2.068495         0.990336
 C        -2.381982         1.195635         1.741360
 C        -1.177867         0.284175         2.217246
 C        -3.756699         1.650371         2.098733
 C        -4.477963         1.579780         0.591394
 O        -3.363059         1.140432        -0.396694
 C        -2.487351         0.421673         0.459299
 H         0.745793         0.509990         0.065681
 H        -0.732961         2.660239         1.775207
 H        -1.660243         2.731197         0.147182
 H        -0.373005         0.723457         2.785670
 H        -1.337729        -0.632845         2.616090
 H        -4.281482         1.083817         2.850502
 H        -3.693442         2.715580         2.467984
 H        -5.387943         0.893026         0.754629
 H        -4.741251         2.664759         0.381844
 H        -3.051914        -0.549575         0.684347
