19
Iteration:  4382charge 0 multiplicity 1
 O         0.029643         0.054129        -0.081062
 C        -0.963305         0.553247         0.737510
 C        -1.371312         1.949926         1.032498
 C        -2.373035         1.153963         1.814998
 C        -1.301717         0.271253         2.288246
 C        -3.800688         1.744621         1.996567
 C        -4.379871         1.645325         0.588754
 O        -3.210541         1.061150        -0.433054
 C        -2.484633         0.271483         0.527741
 H        -0.090172         0.223356        -1.051326
 H        -0.649490         2.571488         1.629000
 H        -1.696753         2.520790         0.192367
 H        -0.581957         0.714310         3.037585
 H        -1.477793        -0.695855         2.610500
 H        -4.418697         1.040187         2.613128
 H        -3.741524         2.757458         2.332124
 H        -5.310856         1.124900         0.517757
 H        -4.664300         2.553563         0.045768
 H        -2.848246        -0.775848         0.601022
