19
Iteration:  1912
 O        -0.053960        -0.164555        -0.169774
 C        -0.991210         0.533719         0.693983
 C        -1.315575         2.083316         1.171210
 C        -2.405242         1.167224         1.752220
 C        -1.295547         0.150333         2.209875
 C        -3.780293         1.703117         2.009517
 C        -4.315615         1.640640         0.570655
 O        -3.263591         1.206925        -0.331519
 C        -2.465994         0.388965         0.456138
 H         0.715429         0.423516        -0.269741
 H        -0.581044         2.505850         1.850643
 H        -1.733657         2.811790         0.506552
 H        -0.617787         0.563684         3.007833
 H        -1.644716        -0.788513         2.596132
 H        -4.370080         1.208719         2.775355
 H        -3.743540         2.765970         2.308684
 H        -5.166509         0.908714         0.514597
 H        -4.597288         2.490494        -0.051353
 H        -2.823660        -0.622031         0.547979
