19
Iteration:  3357
 O         0.151318         0.019367        -0.018533
 C        -1.019306         0.454294         0.684294
 C        -1.311126         1.977926         0.926248
 C        -2.372860         1.133156         1.735965
 C        -1.173977         0.359523         2.250995
 C        -3.807148         1.543544         2.046108
 C        -4.269798         1.838549         0.580530
 O        -3.475284         0.980183        -0.330324
 C        -2.603638         0.335667         0.513030
 H         0.292481         0.570529        -0.799588
 H        -0.581348         2.519983         1.564345
 H        -1.717517         2.534399         0.019542
 H        -0.624324         1.106378         2.851679
 H        -1.406747        -0.642563         2.730451
 H        -4.433911         0.692175         2.360723
 H        -3.976610         2.388299         2.738442
 H        -5.315672         1.882301         0.391566
 H        -3.947858         2.921646         0.333331
 H        -2.888024        -0.731460         0.683061
