19
Iteration:  4261
 O        -0.004789         0.033153        -0.091554
 C        -0.948844         0.517918         0.788944
 C        -1.318528         2.037869         1.042967
 C        -2.446134         1.135713         1.746150
 C        -1.126739         0.148802         2.219505
 C        -3.805766         1.748039         1.934325
 C        -4.455683         1.729431         0.511244
 O        -3.302851         1.081642        -0.374375
 C        -2.492914         0.269249         0.556765
 H         0.867376         0.104481         0.304887
 H        -0.690233         2.509267         1.804398
 H        -1.508566         2.817069         0.198087
 H        -0.394676         0.735245         2.977028
 H        -1.421504        -0.880840         2.470696
 H        -4.429201         1.057251         2.599761
 H        -3.812989         2.697248         2.459291
 H        -5.378037         1.152286         0.647463
 H        -4.790563         2.640491        -0.028041
 H        -2.862317        -0.757158         0.550824
