19
Iteration:  4233charge 0 multiplicity 1
 O        -0.010848         0.007890        -0.180952
 C        -0.970008         0.536006         0.692826
 C        -1.200778         2.015780         1.061078
 C        -2.400505         1.220300         1.871271
 C        -1.368460         0.270102         2.329239
 C        -3.825256         1.585800         1.967854
 C        -4.266847         1.741703         0.467574
 O        -3.388354         0.923256        -0.384063
 C        -2.454976         0.400840         0.578768
 H         0.694126         0.663277        -0.368660
 H        -0.396159         2.372026         1.764339
 H        -1.390078         2.776110         0.375474
 H        -0.603308         0.741795         2.831190
 H        -1.824385        -0.696431         2.551455
 H        -4.385428         0.842542         2.517959
 H        -4.094641         2.505080         2.530341
 H        -5.345879         1.475377         0.493530
 H        -4.139685         2.801616         0.191651
 H        -2.766161        -0.677615         0.659570
