19
Iteration:  1704
 O         0.208008         0.003660         0.112275
 C        -0.981883         0.517679         0.662130
 C        -1.372899         2.013444         1.126641
 C        -2.388216         1.063820         1.691540
 C        -1.368432         0.070195         2.184587
 C        -3.656144         1.711443         2.087472
 C        -4.276835         1.776565         0.570521
 O        -3.452989         1.179772        -0.397957
 C        -2.570999         0.367845         0.313046
 H         0.054708        -0.188140        -0.854225
 H        -0.780954         2.445828         1.898578
 H        -1.560238         2.773926         0.303104
 H        -0.814671         0.272682         3.099521
 H        -1.755952        -0.879299         2.260610
 H        -4.202394         1.081441         2.873451
 H        -3.637913         2.758710         2.520436
 H        -5.303907         1.391791         0.327902
 H        -4.230203         2.854388         0.360117
 H        -2.935938        -0.738656         0.287562
