19
Iteration:    72
 O         0.099911         0.032297         0.006273
 C        -0.967065         0.487007         0.787698
 C        -1.309244         1.945972         1.003044
 C        -2.371471         1.203497         1.757861
 C        -1.318008         0.207774         2.352084
 C        -3.708531         1.871361         1.917230
 C        -4.378753         1.532161         0.641937
 O        -3.391980         1.149844        -0.454848
 C        -2.446577         0.352121         0.424584
 H        -0.298078        -0.467115        -0.710369
 H        -0.493521         2.567119         1.490198
 H        -1.627026         2.418499         0.011678
 H        -0.599263         0.580219         3.174382
 H        -1.697935        -0.870045         2.539172
 H        -4.343918         1.298391         2.669092
 H        -3.711876         2.918017         2.282135
 H        -5.057682         0.661351         0.677549
 H        -4.946255         2.361305         0.142540
 H        -3.023841        -0.614772         0.425182
