19
Iteration:  1673
 O         0.158654         0.079211         0.008807
 C        -0.928139         0.459991         0.727370
 C        -1.130110         1.894503         1.079361
 C        -2.387277         1.148410         1.760977
 C        -1.332733         0.033178         2.177356
 C        -3.813727         1.717719         2.020372
 C        -4.424742         1.717496         0.516112
 O        -3.377003         1.244654        -0.384498
 C        -2.616471         0.469642         0.476177
 H        -0.040508        -0.406041        -0.784541
 H        -0.390950         2.232284         1.798664
 H        -1.206587         2.607710         0.193064
 H        -0.827631         0.278550         3.135346
 H        -1.738163        -0.949996         2.144862
 H        -4.240876         0.918847         2.638468
 H        -3.878166         2.625926         2.692853
 H        -5.288847         1.069028         0.357120
 H        -4.699852         2.683790         0.233488
 H        -3.066635        -0.562673         0.645246
