19
Iteration:   918charge 0 multiplicity 1
 O         0.029168        -0.118454         0.002955
 C        -0.948461         0.544573         0.729597
 C        -1.315616         2.104864         1.085246
 C        -2.355108         1.194979         1.735083
 C        -1.265585         0.237469         2.279768
 C        -3.781231         1.626750         2.009061
 C        -4.376012         1.713649         0.515600
 O        -3.253785         1.126986        -0.397120
 C        -2.566849         0.306770         0.433161
 H        -0.091690        -0.007200        -0.983430
 H        -0.660378         2.565903         1.810955
 H        -1.521531         2.825356         0.282874
 H        -0.591255         0.660458         3.038768
 H        -1.466727        -0.743870         2.529508
 H        -4.389224         0.897060         2.549067
 H        -3.964368         2.617282         2.492072
 H        -5.358575         1.192500         0.404994
 H        -4.532789         2.714424         0.146322
 H        -2.992171        -0.652297         0.721657
