19
Iteration:  2633charge 0 multiplicity 1
 O         0.082365        -0.036585        -0.055227
 C        -0.995126         0.486540         0.699880
 C        -1.325377         2.013268         0.890353
 C        -2.360233         1.213306         1.727722
 C        -1.222333         0.299072         2.221384
 C        -3.712146         1.616668         2.056829
 C        -4.348643         1.729640         0.613634
 O        -3.428805         1.004714        -0.366016
 C        -2.573334         0.371278         0.540859
 H         0.805823         0.586790        -0.003795
 H        -0.550144         2.474561         1.479652
 H        -1.650308         2.592172         0.061669
 H        -0.531178         0.926516         2.859885
 H        -1.545936        -0.686171         2.631038
 H        -4.318388         0.763357         2.415222
 H        -3.964708         2.543122         2.644846
 H        -5.239934         1.261981         0.786018
 H        -4.466540         2.830553         0.394233
 H        -3.027683        -0.590474         0.593024
