19
Iteration:  1944
 O        -0.058993         0.172588        -0.242289
 C        -1.029446         0.399721         0.746893
 C        -1.173379         1.930284         1.053200
 C        -2.345942         1.176600         1.758978
 C        -1.353862         0.102688         2.368082
 C        -3.807296         1.774815         1.988504
 C        -4.327115         1.636438         0.544767
 O        -3.285765         1.157660        -0.339173
 C        -2.496221         0.339895         0.485713
 H         0.722028        -0.217606         0.156264
 H        -0.329732         2.302337         1.598652
 H        -1.553015         2.462658         0.215309
 H        -0.653004         0.673380         3.070853
 H        -1.904911        -0.765047         2.758242
 H        -4.318801         1.178018         2.731850
 H        -3.738667         2.805731         2.298398
 H        -5.206305         1.021751         0.673124
 H        -4.616592         2.567464         0.043440
 H        -2.963556        -0.673364         0.529543
