19
Iteration:  3755charge 0 multiplicity 1
 O        -0.028519         0.129477        -0.130620
 C        -0.992220         0.484751         0.795670
 C        -1.277836         1.958151         1.054923
 C        -2.397613         1.081160         1.734529
 C        -1.222891         0.170270         2.294612
 C        -3.703163         1.924022         2.033622
 C        -4.381003         1.575732         0.551548
 O        -3.358128         1.059328        -0.403406
 C        -2.500865         0.236326         0.505043
 H         0.436307         0.986452        -0.326320
 H        -0.620807         2.392567         1.777282
 H        -1.483400         2.642547         0.193826
 H        -0.544043         0.482672         3.054089
 H        -1.442708        -0.862056         2.393155
 H        -4.490522         1.548942         2.670778
 H        -3.518098         2.985960         2.211135
 H        -5.326523         0.957103         0.604467
 H        -4.735742         2.440943         0.003219
 H        -2.859269        -0.808409         0.457369
