19
Iteration:   392charge 0 multiplicity 1
 O         0.095226         0.148461        -0.067482
 C        -0.989935         0.474491         0.767955
 C        -1.265654         1.851693         1.109122
 C        -2.403824         1.122997         1.776665
 C        -1.198208         0.104207         2.293151
 C        -3.790280         1.898956         1.890612
 C        -4.481330         1.651222         0.443065
 O        -3.298406         1.173462        -0.349036
 C        -2.599074         0.298286         0.506292
 H         0.348659        -0.779262        -0.173657
 H        -0.437785         2.278097         1.743953
 H        -1.479841         2.551069         0.282975
 H        -0.364631         0.437427         2.949075
 H        -1.594301        -0.957701         2.504646
 H        -4.282292         1.579879         2.801527
 H        -3.495634         2.922549         1.977700
 H        -5.299150         0.983357         0.519316
 H        -4.800715         2.661757         0.062518
 H        -3.079990        -0.683142         0.687374
