19
Iteration:  4606charge 0 multiplicity 1
 O         0.182296        -0.030244         0.027272
 C        -0.931967         0.524318         0.699452
 C        -1.205495         2.030371         1.048716
 C        -2.398913         1.240580         1.641875
 C        -1.237582         0.220464         2.218327
 C        -3.837225         1.688340         2.021350
 C        -4.571770         1.533792         0.662513
 O        -3.399171         1.106970        -0.404067
 C        -2.540374         0.374190         0.392963
 H         0.960387         0.504610         0.214733
 H        -0.489470         2.563964         1.693518
 H        -1.525073         2.709551         0.170810
 H        -0.565236         0.631969         2.957729
 H        -1.530033        -0.782923         2.565624
 H        -4.348932         1.379534         2.923710
 H        -3.795123         2.790947         2.162240
 H        -5.350215         0.794671         0.551538
 H        -4.817146         2.472683         0.225697
 H        -2.866776        -0.683691         0.470752
