19
Iteration:  4160
 O         0.204767         0.120005         0.123216
 C        -0.981539         0.520412         0.683383
 C        -1.386195         1.972276         0.957320
 C        -2.397008         1.067990         1.711969
 C        -1.263099         0.197876         2.171623
 C        -3.769232         1.655292         2.000494
 C        -4.205760         1.874746         0.556390
 O        -3.509260         1.009036        -0.337168
 C        -2.572142         0.223617         0.515802
 H         0.120801         0.311152        -0.864745
 H        -0.870921         2.705193         1.613092
 H        -1.780611         2.436782         0.045565
 H        -0.575581         0.759550         2.783054
 H        -1.440263        -0.914090         2.338227
 H        -4.411648         1.095305         2.694420
 H        -3.574202         2.632027         2.519780
 H        -5.273784         1.619467         0.403480
 H        -3.956249         2.899890         0.259651
 H        -2.942133        -0.804589         0.610131
