19
Iteration:  1553
 O         0.223428         0.070187         0.055300
 C        -0.901064         0.526366         0.670805
 C        -1.274390         2.070216         1.130213
 C        -2.429130         1.069155         1.716727
 C        -1.428371         0.050156         2.117893
 C        -3.696723         1.657759         2.092599
 C        -4.198571         1.872040         0.534244
 O        -3.562852         1.109449        -0.364640
 C        -2.567042         0.354126         0.386225
 H         0.063533        -0.858982        -0.303392
 H        -0.693051         2.629892         1.869304
 H        -1.626926         2.594392         0.193482
 H        -0.641915         0.273437         2.979158
 H        -1.839230        -1.022539         2.209436
 H        -4.449264         0.935351         2.381053
 H        -3.627343         2.543532         2.767595
 H        -5.286515         1.638818         0.556228
 H        -4.114229         2.869954         0.184974
 H        -2.884703        -0.710249         0.462600
