19
Iteration:  4133charge 0 multiplicity 1
 O         0.212987         0.032758         0.045415
 C        -0.964719         0.552484         0.690729
 C        -1.199903         2.094640         0.994447
 C        -2.277837         1.273858         1.746288
 C        -1.358598         0.151301         2.195439
 C        -3.866049         1.669340         2.029820
 C        -4.384916         1.784444         0.569641
 O        -3.506974         0.953441        -0.347894
 C        -2.505640         0.294665         0.476596
 H        -0.173642         0.008166        -0.875069
 H        -0.528399         2.522100         1.733216
 H        -1.513114         2.719176         0.122885
 H        -0.553630         0.296377         2.991476
 H        -1.866024        -0.838107         2.237932
 H        -4.185584         0.758799         2.570123
 H        -3.983759         2.567341         2.653774
 H        -5.346833         1.290755         0.433101
 H        -4.177306         2.803009         0.205721
 H        -2.749386        -0.795938         0.471869
