19
Iteration:  2485charge 0 multiplicity 1
 O         0.080970        -0.026704        -0.111687
 C        -0.907146         0.503224         0.704762
 C        -1.326144         2.022159         0.871701
 C        -2.317219         1.224281         1.770614
 C        -1.259878         0.267936         2.261362
 C        -3.830905         1.613446         2.111444
 C        -4.411347         1.739911         0.655300
 O        -3.425869         1.049013        -0.412720
 C        -2.492728         0.349599         0.493668
 H         0.861929        -0.094197         0.451635
 H        -0.524959         2.702465         1.231024
 H        -1.788316         2.408153        -0.021462
 H        -0.420240         0.814388         2.815977
 H        -1.433596        -0.871693         2.492174
 H        -4.333024         0.901091         2.808544
 H        -3.748871         2.540544         2.633377
 H        -5.428423         1.359006         0.521496
 H        -4.564540         2.794819         0.474351
 H        -3.035982        -0.602377         0.683888
