19
Iteration:   214
 O         0.095350         0.068943        -0.027599
 C        -0.965170         0.604679         0.655162
 C        -1.304896         2.038020         1.059920
 C        -2.424994         1.212648         1.719176
 C        -1.452245         0.224395         2.253079
 C        -3.725683         1.663845         2.028689
 C        -4.111193         1.864329         0.511176
 O        -3.500886         0.828699        -0.354630
 C        -2.465313         0.297721         0.478934
 H         0.073077        -0.824932        -0.332514
 H        -0.607583         2.655322         1.749990
 H        -1.658418         2.611794         0.129177
 H        -0.709527         0.427712         3.132200
 H        -1.853040        -0.815559         2.583583
 H        -4.386691         0.980434         2.618972
 H        -3.975772         2.609909         2.510708
 H        -5.169259         2.024584         0.303995
 H        -3.599745         2.827659         0.427698
 H        -2.708996        -0.771290         0.649274
