19
Iteration:  1696charge 0 multiplicity 1
 O         0.235644         0.022538         0.075094
 C        -0.971018         0.485574         0.680412
 C        -1.291658         2.057281         1.076743
 C        -2.399370         1.154949         1.728634
 C        -1.456472        -0.004079         2.182555
 C        -3.746087         1.717937         2.065025
 C        -4.344870         1.768655         0.614942
 O        -3.403146         1.185100        -0.351142
 C        -2.529615         0.318474         0.289215
 H         0.143967        -0.284113        -0.844392
 H        -0.628587         2.464451         1.853110
 H        -1.526057         2.801819         0.260056
 H        -0.690424         0.345358         2.912273
 H        -1.912177        -0.959543         2.424485
 H        -4.235235         1.124991         2.823631
 H        -3.576613         2.738464         2.519458
 H        -5.368765         1.412928         0.535393
 H        -4.349299         2.777783         0.317004
 H        -2.780301        -0.769157         0.104167
