19
Iteration:  1494charge 0 multiplicity 1
 O        -0.002212         0.169763        -0.228718
 C        -1.018666         0.528695         0.682574
 C        -1.330621         1.928773         1.123094
 C        -2.402188         1.094133         1.748648
 C        -1.405006         0.127786         2.379208
 C        -3.803544         1.584814         1.985348
 C        -4.143711         1.992552         0.552070
 O        -3.267333         1.094533        -0.385009
 C        -2.518516         0.207326         0.522864
 H         0.152317        -0.761477        -0.066365
 H        -0.619728         2.526217         1.746397
 H        -1.680859         2.543893         0.292036
 H        -0.776761         0.427289         3.152827
 H        -1.652199        -0.923500         2.436921
 H        -4.531938         0.699092         2.259604
 H        -3.992634         2.326023         2.771731
 H        -5.142366         2.114398         0.187441
 H        -3.588463         2.960131         0.413201
 H        -2.863357        -0.744799         0.826045
