19
Iteration:  1204charge 0 multiplicity 1
 O         0.007264         0.028537        -0.119506
 C        -0.974195         0.580293         0.754922
 C        -1.298462         1.994867         1.036223
 C        -2.379320         1.085859         1.791065
 C        -1.385424         0.173928         2.291032
 C        -3.814534         1.604628         2.057841
 C        -4.124168         1.882769         0.498464
 O        -3.338859         1.106783        -0.381999
 C        -2.496466         0.360095         0.458084
 H        -0.155824        -0.895985        -0.195852
 H        -0.689598         2.613021         1.783222
 H        -1.772451         2.468758         0.228164
 H        -0.707426         0.604630         2.975203
 H        -1.662278        -0.863048         2.494859
 H        -4.432144         0.683398         2.448137
 H        -4.019884         2.482568         2.780774
 H        -5.056697         1.349153         0.438163
 H        -4.199230         2.904114         0.136680
 H        -2.799157        -0.734067         0.414344
