19
Iteration:   762charge 0 multiplicity 1
 O        -0.027306        -0.180646        -0.085198
 C        -0.889757         0.585212         0.732346
 C        -1.387434         2.094368         1.042207
 C        -2.420941         1.132646         1.736119
 C        -1.321840         0.324727         2.325578
 C        -3.791621         1.704560         2.018056
 C        -4.354967         1.662999         0.534120
 O        -3.274307         1.152443        -0.410675
 C        -2.428477         0.311050         0.416041
 H         0.819669        -0.119542         0.303304
 H        -0.664471         2.631712         1.698897
 H        -1.551848         2.754936         0.174514
 H        -0.620828         0.652697         3.040423
 H        -1.591375        -0.702113         2.602470
 H        -4.433632         1.020537         2.660954
 H        -3.815612         2.608869         2.678485
 H        -5.160871         0.850758         0.502111
 H        -4.725301         2.649728         0.178268
 H        -2.766988        -0.725691         0.565847
