19
Iteration:     2charge 0 multiplicity 1
 O        -0.012535        -0.037931        -0.076259
 C        -0.988537         0.529508         0.725136
 C        -1.306516         2.028308         0.970272
 C        -2.381700         1.206999         1.766462
 C        -1.243900         0.288982         2.266519
 C        -3.787148         1.726085         1.984568
 C        -4.288898         1.736769         0.481571
 O        -3.380336         0.960833        -0.328116
 C        -2.524875         0.287717         0.553498
 H         0.862658         0.342993         0.167063
 H        -0.574339         2.625067         1.556743
 H        -1.627335         2.567325         0.059397
 H        -0.490840         0.695122         2.949398
 H        -1.510145        -0.756586         2.573673
 H        -4.347755         1.027750         2.587985
 H        -3.840626         2.712824         2.485727
 H        -5.313050         1.341338         0.420490
 H        -4.282968         2.728732         0.083420
 H        -2.813675        -0.753159         0.741539
