19
Iteration:  3335charge 0 multiplicity 1
 O         0.106807         0.086308        -0.064009
 C        -1.016269         0.593758         0.712707
 C        -1.323193         2.047642         0.950587
 C        -2.358678         1.238089         1.754323
 C        -1.269129         0.212881         2.209243
 C        -3.777878         1.603523         2.011312
 C        -4.150313         1.940499         0.493833
 O        -3.571132         0.801477        -0.245961
 C        -2.546012         0.198802         0.575667
 H         0.675501         0.724017        -0.551372
 H        -0.595551         2.561632         1.613739
 H        -1.542405         2.510204        -0.057031
 H        -0.453884         0.439782         2.914791
 H        -1.774471        -0.803138         2.326653
 H        -4.393986         0.756690         2.319258
 H        -3.931196         2.436514         2.723804
 H        -5.183169         1.962629         0.280808
 H        -3.899065         3.027729         0.367805
 H        -2.660107        -0.894541         0.669305
