19
Iteration:  3053
 O        -0.033689        -0.064422        -0.001835
 C        -1.031860         0.628602         0.685104
 C        -1.390489         2.102373         1.029111
 C        -2.373120         1.155029         1.747980
 C        -1.185733         0.244286         2.156961
 C        -3.721659         1.568837         2.021669
 C        -4.249035         1.815853         0.559190
 O        -3.473117         1.015721        -0.341029
 C        -2.459742         0.283712         0.484629
 H         0.873415         0.107222         0.357878
 H        -0.532161         2.634988         1.398639
 H        -1.761353         2.577306         0.150543
 H        -0.518067         0.827744         2.843034
 H        -1.301499        -0.776202         2.262449
 H        -4.223324         0.691288         2.442678
 H        -3.701114         2.443194         2.655630
 H        -5.239996         1.443448         0.427688
 H        -4.160479         2.872966         0.255361
 H        -2.874977        -0.673662         0.610408
