19
Iteration:  1278charge 0 multiplicity 1
 O         0.091436        -0.039336         0.026189
 C        -1.021315         0.486496         0.688296
 C        -1.267264         1.995618         1.102047
 C        -2.430289         1.097302         1.700541
 C        -1.423108         0.143355         2.177118
 C        -3.664751         1.799226         2.091581
 C        -4.366951         1.757669         0.581938
 O        -3.344297         1.100734        -0.400472
 C        -2.483117         0.360131         0.377273
 H         0.610262         0.772331        -0.253402
 H        -0.614421         2.406149         1.846078
 H        -1.508788         2.591415         0.244440
 H        -0.680478         0.493461         2.874958
 H        -1.693788        -0.957969         2.228287
 H        -4.339361         1.227609         2.635395
 H        -3.569752         2.708836         2.674346
 H        -5.287503         1.091885         0.782403
 H        -4.674513         2.656585         0.075593
 H        -2.790845        -0.696238         0.388004
