19
Iteration:  1226charge 0 multiplicity 1
 O         0.125889        -0.021189         0.060061
 C        -1.008388         0.491662         0.643363
 C        -1.273257         2.035957         1.067852
 C        -2.329392         1.164375         1.676992
 C        -1.262737         0.162033         2.188032
 C        -3.866445         1.555521         2.028520
 C        -4.410303         1.867623         0.557139
 O        -3.321128         1.190219        -0.382450
 C        -2.538178         0.332771         0.504078
 H        -0.105530        -0.819875        -0.516710
 H        -0.391899         2.350593         1.712189
 H        -1.507621         2.585087         0.206217
 H        -0.524089         0.574028         2.838161
 H        -1.676805        -0.798472         2.494016
 H        -4.326035         0.702203         2.675868
 H        -4.036008         2.550992         2.574095
 H        -5.426802         1.600377         0.414982
 H        -4.203247         2.900376         0.326661
 H        -2.885621        -0.703971         0.576266
