19
Iteration:     7charge 0 multiplicity 1
 O         0.000243        -0.057219        -0.063383
 C        -0.981607         0.532193         0.770174
 C        -1.306780         2.064161         0.986487
 C        -2.365422         1.208210         1.786882
 C        -1.219091         0.262749         2.237085
 C        -3.794194         1.746340         1.981578
 C        -4.320994         1.695802         0.447213
 O        -3.384943         0.981586        -0.343283
 C        -2.577953         0.319775         0.559593
 H         0.846933         0.351489         0.094511
 H        -0.574757         2.758911         1.442281
 H        -1.514269         2.407690        -0.059732
 H        -0.397716         0.547162         2.928886
 H        -1.438073        -0.786585         2.497708
 H        -4.269668         0.960977         2.637440
 H        -3.804433         2.653978         2.610966
 H        -5.373767         1.343700         0.472835
 H        -4.267744         2.739356         0.001635
 H        -2.744422        -0.764764         0.785206
