19
Iteration:  2216
 O        -0.061344         0.049575        -0.182982
 C        -1.001101         0.490265         0.729055
 C        -1.243151         2.023325         1.032984
 C        -2.373204         1.213598         1.705771
 C        -1.357631         0.267419         2.308335
 C        -3.695483         1.755563         2.000684
 C        -4.334429         1.609109         0.586312
 O        -3.329478         1.028707        -0.345097
 C        -2.512011         0.221376         0.530184
 H         0.541166         0.824064        -0.305941
 H        -0.450287         2.484223         1.727297
 H        -1.440802         2.571963         0.113397
 H        -0.818606         0.675688         3.166888
 H        -1.589433        -0.719343         2.530286
 H        -4.180814         1.227805         2.825595
 H        -3.624052         2.816355         2.244577
 H        -5.182730         0.963001         0.549055
 H        -4.437086         2.631341         0.147324
 H        -2.842328        -0.744301         0.859147
