19
Iteration:  4023
 O         0.217390        -0.007847         0.039757
 C        -0.883124         0.612640         0.694763
 C        -1.205790         2.095248         1.123626
 C        -2.381716         1.169852         1.702710
 C        -1.310857         0.090909         2.165798
 C        -3.716484         1.838535         1.991935
 C        -4.439633         1.651013         0.560786
 O        -3.553179         0.997191        -0.368709
 C        -2.606274         0.299532         0.448817
 H         0.380447         0.332322        -0.848615
 H        -0.477925         2.501897         1.784392
 H        -1.391162         2.816081         0.243867
 H        -0.617709         0.466328         2.979352
 H        -1.791191        -0.829745         2.163850
 H        -4.214468         1.247576         2.796454
 H        -3.579663         2.775699         2.476738
 H        -5.325252         0.922278         0.798839
 H        -4.834880         2.579147         0.040398
 H        -2.726578        -0.779081         0.703048
