19
Iteration:  2913
 O         0.028491        -0.075920         0.011064
 C        -0.945220         0.567648         0.654903
 C        -1.260086         2.052708         0.895175
 C        -2.308423         1.224609         1.677527
 C        -1.246778         0.234969         2.195853
 C        -3.788825         1.618908         2.027611
 C        -4.423744         1.749466         0.599992
 O        -3.401358         1.048189        -0.250229
 C        -2.535520         0.290049         0.528365
 H         0.490832         0.561385        -0.580059
 H        -0.510971         2.665582         1.472163
 H        -1.562542         2.700034         0.077304
 H        -0.630194         0.688017         3.052312
 H        -1.562056        -0.758025         2.300320
 H        -4.186479         0.720074         2.533420
 H        -3.967836         2.563697         2.600669
 H        -5.365940         1.329063         0.379232
 H        -4.420529         2.828111         0.409153
 H        -2.694550        -0.763561         0.767549
