19
Iteration:   241charge 0 multiplicity 1
 O         0.076351         0.231600        -0.041326
 C        -1.019791         0.479819         0.738614
 C        -1.220889         1.917068         1.059213
 C        -2.412297         1.157691         1.794131
 C        -1.232584         0.149279         2.261758
 C        -3.782740         1.725810         1.929279
 C        -4.209038         1.975735         0.343201
 O        -3.512866         0.882507        -0.286161
 C        -2.570465         0.232030         0.577753
 H         0.501264        -0.619319        -0.151135
 H        -0.456172         2.280777         1.664970
 H        -1.505254         2.463312         0.190661
 H        -0.495342         0.485210         2.919542
 H        -1.528908        -0.825334         2.525105
 H        -4.475480         0.960929         2.278127
 H        -3.998915         2.626839         2.538746
 H        -5.310505         1.883867         0.201666
 H        -3.895243         3.017854         0.045231
 H        -2.959793        -0.788546         0.717307
