19
Iteration:  4773charge 0 multiplicity 1
 O         0.232279         0.230863         0.091401
 C        -0.985311         0.539164         0.660985
 C        -1.490219         1.958933         0.954137
 C        -2.423674         1.113350         1.682851
 C        -1.259215         0.198309         2.096343
 C        -3.777594         1.641410         2.009592
 C        -4.176126         1.916015         0.555939
 O        -3.419677         0.918004        -0.301617
 C        -2.597707         0.221037         0.491650
 H         0.435760        -0.647027         0.403492
 H        -0.958750         2.723707         1.617856
 H        -2.005523         2.400876         0.141069
 H        -0.617346         0.493212         3.056377
 H        -1.346187        -0.860196         2.195823
 H        -4.582914         0.993579         2.526797
 H        -3.828769         2.421108         2.740404
 H        -5.281886         1.937917         0.465187
 H        -3.873393         2.865110         0.039917
 H        -2.897157        -0.808047         0.890031
