19
Iteration:  4887charge 0 multiplicity 1
 O         0.090245        -0.032337        -0.013678
 C        -1.008941         0.567771         0.671922
 C        -1.320971         1.985441         1.021004
 C        -2.393553         1.137546         1.835611
 C        -1.241090         0.279357         2.240174
 C        -3.864589         1.630371         2.055352
 C        -4.368943         1.627525         0.514666
 O        -3.248809         1.151227        -0.406825
 C        -2.513410         0.327728         0.481896
 H         0.192436         0.409897        -0.858828
 H        -0.628304         2.401683         1.673610
 H        -1.818420         2.743957         0.388466
 H        -0.551502         0.746517         2.849408
 H        -1.342908        -0.598405         2.914850
 H        -4.541873         1.076968         2.672347
 H        -3.913282         2.697951         2.401991
 H        -5.288897         1.016660         0.487505
 H        -4.663166         2.609388         0.077466
 H        -2.838246        -0.721498         0.409509
