19
Iteration:  4499
 O         0.057259         0.067972        -0.066035
 C        -0.992942         0.542918         0.695786
 C        -1.356126         2.109081         0.949522
 C        -2.438107         1.106311         1.735962
 C        -1.300984         0.238823         2.240522
 C        -3.809967         1.630780         2.017750
 C        -4.265003         1.794830         0.588190
 O        -3.324245         0.895719        -0.319995
 C        -2.477843         0.263295         0.521735
 H         0.745375         0.719503        -0.073175
 H        -0.636156         2.736207         1.450337
 H        -1.729636         2.798604         0.113206
 H        -0.673107         0.756177         3.047882
 H        -1.419844        -0.862459         2.454719
 H        -4.602266         0.962647         2.411805
 H        -3.832334         2.565732         2.532644
 H        -5.326465         1.479081         0.266004
 H        -4.196547         2.823934         0.166110
 H        -2.842548        -0.685435         0.947522
