19
Iteration:  2479
 O         0.112078        -0.012705        -0.109939
 C        -0.951813         0.472753         0.723643
 C        -1.294190         1.984360         0.823485
 C        -2.382153         1.215257         1.760530
 C        -1.175743         0.260816         2.228702
 C        -3.852883         1.578802         2.094570
 C        -4.372488         1.755616         0.658354
 O        -3.463353         1.071262        -0.394079
 C        -2.496698         0.367455         0.522474
 H         0.957917        -0.049849         0.407635
 H        -0.538726         2.606192         1.300462
 H        -1.812595         2.478946        -0.036648
 H        -0.571634         0.801636         2.963259
 H        -1.355039        -0.652100         2.683156
 H        -4.439174         0.933608         2.751235
 H        -4.040170         2.578261         2.658380
 H        -5.436683         1.449438         0.603728
 H        -4.359137         2.853044         0.387891
 H        -2.950740        -0.603561         0.728568
