19
Iteration:  4430charge 0 multiplicity 1
 O         0.090687         0.040722        -0.035631
 C        -0.979752         0.572670         0.745528
 C        -1.321326         2.064212         1.015175
 C        -2.408809         1.217437         1.732889
 C        -1.302050         0.194013         2.228734
 C        -3.816612         1.665970         2.029664
 C        -4.190495         1.827108         0.537639
 O        -3.495316         0.810090        -0.344945
 C        -2.457713         0.327964         0.482576
 H         0.494625         0.855502        -0.327566
 H        -0.650708         2.776209         1.567610
 H        -1.777450         2.608951         0.148689
 H        -0.633410         0.624317         2.942573
 H        -1.479390        -0.913934         2.519823
 H        -4.334279         0.789170         2.408717
 H        -3.892834         2.618724         2.648013
 H        -5.231335         1.524833         0.439974
 H        -4.107813         2.742082        -0.062426
 H        -2.672870        -0.724737         0.674138
