19
Iteration:   368charge 0 multiplicity 1
 O         0.089513         0.018190        -0.023312
 C        -0.999663         0.539010         0.717928
 C        -1.347148         2.007122         1.046582
 C        -2.456438         1.102066         1.747465
 C        -1.395640         0.177116         2.252116
 C        -3.737546         1.843884         2.025369
 C        -4.250180         1.615633         0.545519
 O        -3.289082         1.132948        -0.368090
 C        -2.494904         0.354484         0.402820
 H         0.222113        -0.920822        -0.354328
 H        -0.551789         2.702190         1.574243
 H        -1.745448         2.536155         0.180296
 H        -0.833235         0.685247         3.129749
 H        -1.786805        -0.891281         2.502734
 H        -4.451533         1.335949         2.743651
 H        -3.311782         2.750857         2.433410
 H        -5.021454         0.865679         0.777738
 H        -4.709967         2.501431         0.111891
 H        -2.910622        -0.690077         0.442001
