19
Iteration:  2128
 O         0.177372         0.096122        -0.087905
 C        -0.972657         0.479564         0.709236
 C        -1.304334         2.043912         0.974618
 C        -2.405944         1.175259         1.753268
 C        -1.262329         0.259755         2.267787
 C        -3.806127         1.674976         2.039882
 C        -4.260402         1.832900         0.551763
 O        -3.450942         0.938131        -0.337693
 C        -2.620108         0.194771         0.559671
 H        -0.120451         0.168585        -1.038221
 H        -0.614398         2.582119         1.724392
 H        -1.352611         2.450159        -0.053569
 H        -0.371590         0.645363         2.871976
 H        -1.633193        -0.670421         2.703767
 H        -4.399068         0.921663         2.592901
 H        -3.777335         2.597651         2.564998
 H        -5.320050         1.680884         0.395709
 H        -3.942741         2.894551         0.350318
 H        -2.985679        -0.799910         0.560741
