19
Iteration:   488
 O         0.164148        -0.070009         0.095160
 C        -1.082194         0.498229         0.680547
 C        -1.348179         1.999150         0.967224
 C        -2.365305         1.196097         1.746278
 C        -1.215854         0.244473         2.175686
 C        -3.855543         1.594933         1.954493
 C        -4.237837         1.756673         0.498810
 O        -3.311884         1.157707        -0.306576
 C        -2.618957         0.351761         0.563878
 H        -0.108531         0.044942        -0.801583
 H        -0.592945         2.541630         1.578160
 H        -1.629074         2.669420         0.153178
 H        -0.389163         0.568537         2.802747
 H        -1.604239        -0.763149         2.458570
 H        -4.499582         0.737415         2.304232
 H        -4.034090         2.517773         2.525937
 H        -5.317126         1.388548         0.376216
 H        -4.242608         2.828244         0.312892
 H        -3.001268        -0.674853         0.772002
