19
Iteration:    92
 O         0.122409         0.047789        -0.029601
 C        -1.007548         0.540397         0.670353
 C        -1.234035         2.037768         1.020784
 C        -2.361785         1.208819         1.778970
 C        -1.321576         0.132147         2.169857
 C        -3.805016         1.888473         1.974342
 C        -4.433217         1.516802         0.471647
 O        -3.293420         1.098402        -0.269831
 C        -2.542119         0.324970         0.588359
 H         0.024271        -0.956607        -0.114171
 H        -0.471510         2.512678         1.728977
 H        -1.561148         2.774344         0.208901
 H        -0.524554         0.453627         2.891039
 H        -1.791603        -0.920393         2.313926
 H        -4.381466         1.691704         2.874562
 H        -3.512098         2.980348         1.963913
 H        -5.172791         0.676711         0.457620
 H        -4.858034         2.295788        -0.136104
 H        -3.021568        -0.674238         0.649377
