19
Iteration:  4670
 O         0.096929         0.042610        -0.078767
 C        -0.958037         0.556987         0.662008
 C        -1.346427         1.989232         1.116996
 C        -2.357302         1.091976         1.776064
 C        -1.255342         0.255752         2.347805
 C        -3.789224         1.775983         1.980457
 C        -4.366598         1.558491         0.438569
 O        -3.312536         1.144517        -0.284057
 C        -2.548714         0.277929         0.470704
 H        -0.076224         0.267165        -1.039105
 H        -0.554597         2.440259         1.773083
 H        -1.821548         2.668715         0.293058
 H        -0.643036         0.799953         2.999876
 H        -1.408114        -0.825595         2.651866
 H        -4.393430         1.153722         2.586072
 H        -3.862826         2.921233         2.081863
 H        -5.196436         0.764882         0.513777
 H        -4.732481         2.501236         0.073546
 H        -2.870723        -0.803077         0.500652
