19
Iteration:  3168charge 0 multiplicity 1
 O         0.018191         0.134529        -0.136395
 C        -0.952606         0.508117         0.737941
 C        -1.223712         1.933738         1.009911
 C        -2.419078         1.080327         1.784635
 C        -1.255121         0.214529         2.189926
 C        -3.742597         1.876022         2.020653
 C        -4.413855         1.612032         0.570219
 O        -3.385297         1.044645        -0.350020
 C        -2.561710         0.306458         0.524057
 H         0.886946         0.076082         0.326190
 H        -0.579207         2.450391         1.784441
 H        -1.412762         2.523193         0.086504
 H        -0.580016         0.550623         3.000830
 H        -1.600109        -0.834687         2.565081
 H        -4.428458         1.437456         2.769334
 H        -3.403151         2.930874         2.096445
 H        -5.159544         0.885058         0.609916
 H        -4.728575         2.490301         0.069235
 H        -2.780878        -0.790950         0.555414
