19
Iteration:  2137
 O         0.104871         0.032413        -0.009735
 C        -0.931909         0.523783         0.749584
 C        -1.334020         1.977357         0.937208
 C        -2.427721         1.136231         1.688062
 C        -1.229473         0.289174         2.252470
 C        -3.765765         1.634184         2.081320
 C        -4.227415         1.848705         0.625114
 O        -3.468774         0.932218        -0.420785
 C        -2.569138         0.288019         0.495359
 H        -0.141304         0.414583        -0.895459
 H        -0.650667         2.607764         1.589178
 H        -1.593041         2.691578         0.075864
 H        -0.570589         0.801545         2.916168
 H        -1.517456        -0.679291         2.526921
 H        -4.369374         0.901167         2.723359
 H        -3.744954         2.585314         2.603447
 H        -5.328316         1.669671         0.479655
 H        -4.106077         2.877253         0.273507
 H        -2.806667        -0.726533         0.781537
