19
Iteration:  4990
 O         0.126647         0.090594         0.005550
 C        -1.015662         0.569241         0.694955
 C        -1.404977         2.052148         0.985212
 C        -2.419853         1.162279         1.768440
 C        -1.221889         0.207428         2.223639
 C        -3.868269         1.643104         2.028473
 C        -4.224039         1.753959         0.593980
 O        -3.277796         1.023605        -0.359929
 C        -2.560857         0.228044         0.469543
 H        -0.011995         0.094092        -0.959151
 H        -0.683965         2.509064         1.683239
 H        -1.818608         2.542325         0.133938
 H        -0.512026         0.576367         3.003393
 H        -1.706481        -0.741317         2.354970
 H        -4.458137         0.884158         2.588011
 H        -3.995441         2.584353         2.536291
 H        -5.218492         1.300620         0.337094
 H        -4.152837         2.781448         0.345871
 H        -2.905645        -0.794018         0.614937
