19
Iteration:  4771charge 0 multiplicity 1
 O         0.219594         0.237570         0.100844
 C        -1.006092         0.526834         0.666767
 C        -1.483319         1.943684         0.939504
 C        -2.394757         1.111644         1.700822
 C        -1.238185         0.202227         2.094248
 C        -3.805346         1.640674         2.004722
 C        -4.169532         1.932414         0.554370
 O        -3.423899         0.911416        -0.300029
 C        -2.576104         0.232510         0.471609
 H         0.412337        -0.650328         0.419459
 H        -0.953498         2.733145         1.604736
 H        -2.012296         2.428517         0.114242
 H        -0.636801         0.427624         3.011744
 H        -1.392142        -0.808880         2.245836
 H        -4.582405         0.947853         2.465887
 H        -3.852563         2.445496         2.737143
 H        -5.293317         1.865266         0.521591
 H        -3.905106         2.874118         0.114901
 H        -2.907046        -0.765512         0.898132
