19
Iteration:  2165
 O         0.116012        -0.193467         0.072308
 C        -0.968258         0.616667         0.621089
 C        -1.395398         2.141037         0.907224
 C        -2.398058         1.157842         1.734305
 C        -1.144497         0.284631         2.166847
 C        -3.817228         1.577652         2.021122
 C        -4.304919         1.789761         0.615617
 O        -3.455222         1.050667        -0.284177
 C        -2.565396         0.327666         0.486890
 H         0.755562         0.409494        -0.352524
 H        -0.766738         2.669568         1.603559
 H        -1.708422         2.810748         0.112988
 H        -0.126337         0.563804         2.663725
 H        -1.675189        -0.758030         2.436870
 H        -4.345933         0.852414         2.585344
 H        -3.885762         2.588577         2.528611
 H        -5.319743         1.352012         0.511053
 H        -4.227408         2.823962         0.218670
 H        -2.629783        -0.821254         0.584269
