19
Iteration:   908
 O         0.000526        -0.087659        -0.034569
 C        -1.012468         0.550822         0.768574
 C        -1.277571         2.058146         1.082816
 C        -2.436131         1.150691         1.651398
 C        -1.280148         0.289006         2.302223
 C        -3.799566         1.636083         1.970211
 C        -4.247858         1.717999         0.564570
 O        -3.307604         1.130692        -0.401213
 C        -2.494218         0.250876         0.490520
 H        -0.010929         0.420465        -0.938631
 H        -0.628258         2.523156         1.792034
 H        -1.646925         2.698861         0.223285
 H        -0.769736         0.764291         3.145081
 H        -1.796394        -0.590840         2.528301
 H        -4.152919         0.841175         2.596613
 H        -3.730416         2.584969         2.497776
 H        -5.205653         1.204120         0.305362
 H        -4.261987         2.779967         0.302694
 H        -2.782270        -0.805360         0.690929
