19
Iteration:  3231
 O        -0.041174        -0.226217        -0.058580
 C        -1.013042         0.567617         0.691339
 C        -1.245718         2.136763         1.040124
 C        -2.332045         1.208845         1.771079
 C        -1.114206         0.390184         2.226057
 C        -3.811246         1.559400         2.001508
 C        -4.411264         1.585538         0.598227
 O        -3.385380         1.155625        -0.392566
 C        -2.511360         0.383685         0.451090
 H         0.836585         0.151074         0.095949
 H        -0.576644         2.535268         1.827705
 H        -1.480981         2.911963         0.298323
 H        -0.310748         0.802342         2.872059
 H        -1.475222        -0.519557         2.586333
 H        -4.250200         0.721708         2.612761
 H        -4.207232         2.543237         2.391750
 H        -5.403191         0.922664         0.452885
 H        -4.599490         2.641834         0.344293
 H        -2.921660        -0.612051         0.511666
