19
Iteration:  3835
 O         0.117168        -0.088001        -0.092464
 C        -0.997774         0.592025         0.628125
 C        -1.328851         2.143658         1.106898
 C        -2.390754         1.306370         1.676578
 C        -1.198364         0.302008         2.183710
 C        -3.828684         1.513746         2.063540
 C        -4.322854         1.814577         0.557285
 O        -3.466958         1.014957        -0.320131
 C        -2.528073         0.214602         0.471634
 H         0.841977        -0.337586         0.544876
 H        -0.552796         2.534432         1.836212
 H        -1.461287         2.765068         0.245191
 H        -0.382599         0.751740         2.689033
 H        -1.643512        -0.709545         2.475329
 H        -4.291945         0.662640         2.556618
 H        -3.940987         2.411992         2.724614
 H        -5.369561         1.444625         0.467269
 H        -4.033739         2.757526         0.205084
 H        -2.908283        -0.798307         0.729727
