19
Iteration:  3131charge 0 multiplicity 1
 O        -0.029653         0.045394        -0.169897
 C        -0.968994         0.542566         0.686493
 C        -1.262674         2.019762         1.127748
 C        -2.381667         1.148719         1.850683
 C        -1.264394         0.180322         2.173735
 C        -3.725843         1.827628         2.007019
 C        -4.352862         1.644728         0.480547
 O        -3.367086         0.914977        -0.345674
 C        -2.523079         0.343693         0.566737
 H         0.847209         0.487018        -0.045398
 H        -0.711269         2.541428         1.917219
 H        -1.673303         2.716520         0.375868
 H        -0.416587         0.515185         2.798603
 H        -1.682226        -0.773963         2.265271
 H        -4.442153         1.628842         2.824643
 H        -3.527210         2.889193         2.345460
 H        -5.341638         1.132109         0.492024
 H        -4.616897         2.648182         0.059921
 H        -2.813808        -0.692587         0.629819
