19
Iteration:    52
 O         0.114296        -0.079162         0.038309
 C        -0.971457         0.525489         0.737429
 C        -1.147994         2.020249         1.024361
 C        -2.445629         1.206425         1.686844
 C        -1.379149         0.343923         2.236806
 C        -3.669387         1.737934         2.059313
 C        -4.420761         1.547478         0.520745
 O        -3.359032         1.135453        -0.385537
 C        -2.586123         0.279299         0.423656
 H         0.018006         0.189053        -0.863757
 H        -0.584873         2.555052         1.803767
 H        -1.349538         2.686143         0.171254
 H        -0.630284         0.811055         2.934047
 H        -1.569916        -0.580315         2.763899
 H        -4.322423         1.272207         2.882957
 H        -3.660618         2.780832         2.313616
 H        -5.139569         0.709117         0.661560
 H        -4.980538         2.509789         0.156858
 H        -2.890907        -0.808051         0.595648
