19
Iteration:  1770charge 0 multiplicity 1
 O        -0.135929         0.093778        -0.153562
 C        -1.091969         0.515285         0.750594
 C        -1.234600         2.010237         1.108823
 C        -2.362144         1.125423         1.733279
 C        -1.332487         0.108996         2.405349
 C        -3.773023         1.559291         2.007136
 C        -4.116274         2.015487         0.524866
 O        -3.314541         0.978072        -0.395131
 C        -2.492376         0.264186         0.399758
 H         0.501576         0.808448        -0.227493
 H        -0.587115         2.478497         1.805034
 H        -1.583149         2.683312         0.263877
 H        -0.605709         0.397899         3.180019
 H        -1.790177        -0.772460         2.559104
 H        -4.378209         0.610943         2.165411
 H        -4.162446         2.213113         2.846961
 H        -5.219606         1.924839         0.310528
 H        -3.791797         3.038625         0.288683
 H        -2.821598        -0.767807         0.558033
