19
Iteration:  3514
 O         0.151896        -0.051404        -0.008538
 C        -0.941669         0.492261         0.679848
 C        -1.179236         2.022466         0.901299
 C        -2.391011         1.246673         1.725629
 C        -1.250805         0.333912         2.182188
 C        -3.850359         1.582376         2.088859
 C        -4.397123         1.694807         0.578727
 O        -3.462810         1.065060        -0.310440
 C        -2.546579         0.354391         0.526156
 H         0.266750         0.526194        -0.770892
 H        -0.362308         2.424169         1.486611
 H        -1.375080         2.582222         0.011737
 H        -0.622778         0.875749         3.003911
 H        -1.678607        -0.600741         2.611489
 H        -4.271128         0.682385         2.534264
 H        -4.062470         2.444417         2.691484
 H        -5.320880         1.079159         0.557914
 H        -4.555022         2.705606         0.269363
 H        -2.837952        -0.705022         0.652389
