19
Iteration:  1982charge 0 multiplicity 1
 O         0.079243         0.033076        -0.055008
 C        -0.915670         0.550924         0.707438
 C        -1.265200         2.077493         1.088647
 C        -2.407009         1.095404         1.802096
 C        -1.200480         0.064214         2.170558
 C        -3.782288         1.817840         2.012179
 C        -4.391719         1.752923         0.564930
 O        -3.468430         1.027259        -0.338778
 C        -2.473737         0.372266         0.419143
 H        -0.042632        -0.927283        -0.060981
 H        -0.438810         2.619393         1.626498
 H        -1.782456         2.646113         0.233803
 H        -0.551897         0.455796         2.898252
 H        -1.453360        -0.967124         2.427406
 H        -4.587128         1.316421         2.612478
 H        -3.638574         2.822410         2.492439
 H        -5.337308         1.132112         0.369488
 H        -4.546733         2.805064         0.200568
 H        -2.636128        -0.679498         0.455258
