19
Iteration:  3920
 O         0.020565         0.059841        -0.081910
 C        -0.906387         0.571836         0.754752
 C        -1.316846         2.041857         1.142373
 C        -2.351156         1.202291         1.761827
 C        -1.149770         0.145605         2.207494
 C        -3.813557         1.657347         1.959228
 C        -4.281015         1.894553         0.430579
 O        -3.523671         0.800814        -0.324490
 C        -2.482534         0.345630         0.566347
 H        -0.317867         0.431127        -0.922469
 H        -0.763658         2.734076         1.840494
 H        -1.646609         2.649144         0.305400
 H        -0.518900         0.560362         2.951902
 H        -1.388093        -0.911666         2.528018
 H        -4.418571         0.915926         2.484214
 H        -3.903735         2.655769         2.461691
 H        -5.422836         1.690374         0.366930
 H        -3.910250         2.915876        -0.016669
 H        -2.522979        -0.773920         0.769443
