19
Iteration:    46
 O         0.128110        -0.126994         0.046864
 C        -0.996816         0.543761         0.694446
 C        -1.162635         2.041160         1.039053
 C        -2.404970         1.220156         1.731500
 C        -1.353773         0.345814         2.190726
 C        -3.756713         1.746403         2.007300
 C        -4.430794         1.554209         0.556505
 O        -3.357049         1.112518        -0.323683
 C        -2.553608         0.298139         0.452412
 H         0.240950         0.342108        -0.809999
 H        -0.480138         2.553867         1.730409
 H        -1.344058         2.633463         0.134869
 H        -0.536051         0.763772         2.754602
 H        -1.649944        -0.673324         2.578344
 H        -4.351903         1.187416         2.686248
 H        -3.810946         2.824600         2.285657
 H        -5.236367         0.802114         0.502153
 H        -4.778090         2.461276         0.145165
 H        -2.952419        -0.705787         0.499876
