19
Iteration:   580
 O         0.060124         0.137156        -0.125602
 C        -0.985168         0.484782         0.762460
 C        -1.417561         1.974089         0.993890
 C        -2.486256         1.078401         1.762478
 C        -1.306481         0.208454         2.282756
 C        -3.768793         1.755989         1.998548
 C        -4.147294         1.977284         0.484157
 O        -3.395397         0.910498        -0.343027
 C        -2.496191         0.194508         0.536967
 H         0.809123        -0.303385         0.397623
 H        -0.807712         2.585902         1.661191
 H        -1.764545         2.580981         0.169042
 H        -0.608885         0.597866         3.079632
 H        -1.495097        -0.851017         2.570626
 H        -4.391766         0.956097         2.290441
 H        -3.784104         2.592202         2.677899
 H        -5.185539         1.914125         0.301178
 H        -3.736519         2.894205        -0.001419
 H        -2.860494        -0.856437         0.626530
