19
Iteration:  2908charge 0 multiplicity 1
 O         0.049473        -0.097883        -0.016091
 C        -0.958938         0.598809         0.664627
 C        -1.281706         2.012479         0.932139
 C        -2.310707         1.191963         1.666273
 C        -1.229591         0.230468         2.228553
 C        -3.774428         1.703073         2.029141
 C        -4.414538         1.715977         0.617622
 O        -3.422329         1.028608        -0.275351
 C        -2.502842         0.353517         0.506690
 H         0.587066         0.605999        -0.402985
 H        -0.683648         2.675809         1.535237
 H        -1.676349         2.597115         0.072784
 H        -0.526855         0.585299         2.970634
 H        -1.457536        -0.899849         2.307642
 H        -4.183368         0.794781         2.535758
 H        -3.940678         2.565629         2.664730
 H        -5.459547         1.348216         0.285182
 H        -4.654886         2.801194         0.342984
 H        -2.841764        -0.689818         0.747986
