19
Iteration:  1995
 O         0.163525        -0.038145        -0.009003
 C        -0.916795         0.557126         0.732877
 C        -1.323859         2.010369         1.072171
 C        -2.398456         1.112396         1.711583
 C        -1.282637         0.220911         2.192309
 C        -3.757512         1.665093         2.002880
 C        -4.377076         1.809080         0.626042
 O        -3.504667         1.068231        -0.345645
 C        -2.434605         0.345744         0.413285
 H        -0.249085        -0.725189        -0.596855
 H        -0.902404         2.744995         1.785598
 H        -1.618108         2.557734         0.090046
 H        -0.435435         0.603406         2.822697
 H        -1.480649        -0.870085         2.335669
 H        -4.275066         1.166195         2.855784
 H        -3.610006         2.706947         2.229753
 H        -5.452145         1.477316         0.657380
 H        -4.350443         2.862786         0.242216
 H        -2.750867        -0.697318         0.376626
