19
Iteration:  1416charge 0 multiplicity 1
 O         0.132327         0.003537         0.074371
 C        -0.952491         0.498272         0.740441
 C        -1.284886         1.995759         1.010134
 C        -2.403741         1.077917         1.661214
 C        -1.425700         0.061997         2.189145
 C        -3.725875         1.661314         2.035243
 C        -4.296025         1.852136         0.681347
 O        -3.358113         1.164621        -0.417667
 C        -2.575998         0.338463         0.398448
 H         0.416713         0.648582        -0.563836
 H        -0.566831         2.438144         1.711049
 H        -1.614718         2.551592         0.060411
 H        -0.809058         0.516254         2.941166
 H        -1.789626        -0.921945         2.381241
 H        -4.473482         1.053459         2.744860
 H        -3.635982         2.656976         2.513220
 H        -5.141177         1.261130         0.426738
 H        -4.498205         2.911466         0.388562
 H        -2.772222        -0.681888         0.434465
