19
Iteration:   741
 O        -0.000452        -0.101649        -0.072418
 C        -0.927455         0.515068         0.737570
 C        -1.122316         2.025312         1.042119
 C        -2.377961         1.203854         1.744172
 C        -1.437386         0.254372         2.358449
 C        -3.759722         1.714815         1.937492
 C        -4.440514         1.533851         0.515228
 O        -3.376335         1.154573        -0.383084
 C        -2.429981         0.383726         0.410880
 H         0.869028         0.390553         0.038329
 H        -0.519232         2.496868         1.858967
 H        -1.378230         2.761458         0.250458
 H        -0.876944         0.824348         3.080913
 H        -1.655906        -0.734603         2.746418
 H        -4.200327         1.263230         2.860005
 H        -3.805939         2.827147         2.166875
 H        -5.276142         0.818905         0.753293
 H        -4.840270         2.534818         0.282001
 H        -2.822069        -0.649305         0.424950
