19
Iteration:   947
 O         0.125138        -0.050228         0.088756
 C        -0.920348         0.567019         0.694018
 C        -1.189496         2.045727         1.026321
 C        -2.368290         1.213173         1.735253
 C        -1.207834         0.126422         2.176645
 C        -3.893865         1.720570         1.976522
 C        -4.445898         1.608233         0.563145
 O        -3.330282         1.207617        -0.354831
 C        -2.587878         0.364221         0.450876
 H        -0.068209        -0.618879        -0.624471
 H        -0.385788         2.544756         1.661080
 H        -1.415005         2.627897         0.185701
 H        -0.571406         0.332422         3.061923
 H        -1.581356        -0.964040         2.250400
 H        -4.538383         1.104826         2.641808
 H        -4.123324         2.763121         2.334475
 H        -5.311689         0.943208         0.483488
 H        -4.695004         2.612727         0.215192
 H        -3.131087        -0.642038         0.713005
