19
Iteration:  2577
 O        -0.031415        -0.007328        -0.104471
 C        -1.045473         0.505291         0.666853
 C        -1.269908         2.082985         1.025157
 C        -2.344707         1.259282         1.734815
 C        -1.325309         0.186580         2.276936
 C        -3.619068         1.879206         2.101146
 C        -4.376830         1.438215         0.560217
 O        -3.368020         1.094425        -0.380382
 C        -2.497068         0.281352         0.458088
 H         0.682844         0.656003        -0.264905
 H        -0.454938         2.369174         1.639136
 H        -1.533977         2.866757         0.310438
 H        -0.469178         0.527757         3.043883
 H        -1.733240        -0.814020         2.453918
 H        -4.179231         1.420403         2.924106
 H        -3.606260         2.983401         2.412540
 H        -4.969173         0.575996         0.751083
 H        -5.159731         2.075700         0.090745
 H        -2.925899        -0.693003         0.646042
