19
Iteration:  4398
 O         0.084697         0.043163        -0.091197
 C        -1.022414         0.499761         0.730370
 C        -1.287204         2.031227         1.047473
 C        -2.453886         1.156749         1.764052
 C        -1.144756         0.241527         2.262038
 C        -3.875431         1.702246         1.993864
 C        -4.256053         1.682996         0.415563
 O        -3.357323         1.032757        -0.277094
 C        -2.554175         0.254096         0.566911
 H        -0.032055         0.727667        -0.812174
 H        -0.603395         2.510706         1.772346
 H        -1.537316         2.834494         0.259455
 H        -0.397593         0.765839         2.832088
 H        -1.440110        -0.858324         2.592563
 H        -4.524997         1.194947         2.691714
 H        -3.883227         2.745871         2.456184
 H        -5.249825         1.086871         0.280743
 H        -4.417753         2.671402        -0.146288
 H        -2.898441        -0.767558         0.741812
