19
Iteration:  3529charge 0 multiplicity 1
 O         0.054941        -0.003827         0.019021
 C        -0.986094         0.567376         0.768881
 C        -1.247072         2.046614         0.882402
 C        -2.306547         1.310172         1.670766
 C        -1.242586         0.301085         2.273702
 C        -3.764283         1.492020         2.002432
 C        -4.340731         1.798635         0.616458
 O        -3.479985         0.962902        -0.338649
 C        -2.558726         0.273887         0.488147
 H         0.277363         0.545006        -0.762246
 H        -0.688301         2.703830         1.534506
 H        -1.560026         2.584662        -0.045704
 H        -0.380192         0.474997         2.826448
 H        -1.388280        -0.782506         2.417521
 H        -4.104574         0.534155         2.456096
 H        -4.058908         2.309152         2.707034
 H        -5.413340         1.588792         0.424045
 H        -3.965684         2.862183         0.428430
 H        -3.045521        -0.689334         0.833126
