19
Iteration:  2772
 O         0.103369        -0.122392         0.034636
 C        -1.004332         0.553951         0.658996
 C        -1.371389         2.085659         0.865969
 C        -2.365893         1.264553         1.734310
 C        -1.175278         0.284110         2.202353
 C        -3.757086         1.652399         2.050986
 C        -4.330303         1.634791         0.620546
 O        -3.436317         1.106003        -0.269375
 C        -2.581562         0.262876         0.465835
 H         0.577727         0.566979        -0.464302
 H        -0.583299         2.534897         1.498273
 H        -1.471962         2.857411         0.112869
 H        -0.349788         0.688277         2.854674
 H        -1.377561        -0.735695         2.312922
 H        -4.203154         0.891939         2.619287
 H        -3.956101         2.648710         2.450632
 H        -5.349640         1.035955         0.447048
 H        -4.496006         2.646963         0.245955
 H        -2.913639        -0.780847         0.631254
