19
Iteration:  4264charge 0 multiplicity 1
 O         0.004966         0.035303        -0.073396
 C        -0.950932         0.525746         0.759441
 C        -1.366413         2.032728         1.031997
 C        -2.438892         1.128667         1.769011
 C        -1.150837         0.161429         2.196880
 C        -3.790006         1.751506         1.941225
 C        -4.433194         1.717819         0.527859
 O        -3.297147         1.086332        -0.383499
 C        -2.506270         0.295869         0.571005
 H         0.864908         0.027329         0.379195
 H        -0.651709         2.439486         1.805929
 H        -1.539292         2.727649         0.224002
 H        -0.381901         0.587814         2.924538
 H        -1.353794        -0.872245         2.527021
 H        -4.415314         1.066891         2.569391
 H        -3.708420         2.752196         2.398362
 H        -5.348140         1.078639         0.620982
 H        -4.794147         2.580145        -0.075999
 H        -2.838572        -0.739783         0.497124
