19
Iteration:  1392
 O         0.125742        -0.083766         0.065437
 C        -0.950289         0.448840         0.645190
 C        -1.259204         1.949037         1.004568
 C        -2.343460         1.146342         1.743518
 C        -1.296251         0.139138         2.187851
 C        -3.779572         1.634628         2.094141
 C        -4.418763         1.772397         0.520496
 O        -3.398992         1.323301        -0.380357
 C        -2.569985         0.337754         0.422347
 H         0.910892         0.504394         0.182731
 H        -0.534954         2.336470         1.739198
 H        -1.762897         2.629141         0.245302
 H        -0.490383         0.579764         2.845953
 H        -1.688563        -0.819597         2.424973
 H        -4.371541         0.814530         2.742841
 H        -3.953034         2.610026         2.678006
 H        -5.358976         1.181746         0.218199
 H        -4.545588         2.855648         0.220693
 H        -2.898464        -0.703517         0.455674
