19
Iteration:  1761charge 0 multiplicity 1
 O        -0.012238         0.059503        -0.180912
 C        -1.041459         0.458218         0.746201
 C        -1.246261         2.053110         1.092154
 C        -2.414253         1.128491         1.816278
 C        -1.389964         0.092605         2.296638
 C        -3.794108         1.544581         1.985980
 C        -4.145456         2.021059         0.566574
 O        -3.305380         1.000137        -0.426774
 C        -2.550223         0.312861         0.552947
 H         0.398032         0.897547        -0.381364
 H        -0.517882         2.575983         1.741169
 H        -1.446518         2.508119         0.103415
 H        -0.718804         0.593676         2.966828
 H        -1.745768        -0.859820         2.591033
 H        -4.340855         0.594144         2.011598
 H        -4.105675         2.268342         2.827488
 H        -5.193757         1.861921         0.273075
 H        -3.818900         3.000987         0.333026
 H        -2.925714        -0.774900         0.707343
