19
Iteration:  4466
 O         0.195284         0.075947         0.024803
 C        -0.968536         0.462643         0.692589
 C        -1.371747         1.994571         0.937267
 C        -2.420836         1.110752         1.718423
 C        -1.200608         0.297377         2.247605
 C        -3.862803         1.632110         2.039054
 C        -4.239634         1.914861         0.542739
 O        -3.505906         0.893643        -0.333120
 C        -2.544017         0.257885         0.448014
 H         0.758494         0.861684         0.036990
 H        -0.708800         2.606437         1.539309
 H        -1.791103         2.544601         0.011219
 H        -0.471055         1.002837         2.762502
 H        -1.179009        -0.758546         2.666163
 H        -4.640164         0.881546         2.285113
 H        -3.945383         2.388421         2.818412
 H        -5.357919         1.686071         0.599730
 H        -3.994885         2.948567         0.193345
 H        -2.881807        -0.772536         0.645666
