19
Iteration:  4644charge 0 multiplicity 1
 O         0.068418         0.027878         0.000406
 C        -0.939457         0.534381         0.782997
 C        -1.217443         2.037935         1.026734
 C        -2.386884         1.188264         1.706215
 C        -1.308946         0.177163         2.219212
 C        -3.823807         1.808364         2.068572
 C        -4.474310         1.535954         0.636326
 O        -3.314679         1.069600        -0.457811
 C        -2.490429         0.332300         0.415816
 H         0.431162         0.829129        -0.454095
 H        -0.622865         2.568107         1.771843
 H        -1.448867         2.472344         0.107270
 H        -0.506143         0.620600         2.884559
 H        -1.660933        -0.865170         2.402452
 H        -4.286747         1.101110         2.798323
 H        -3.868588         2.880604         2.224923
 H        -5.161223         0.680620         0.672338
 H        -4.976879         2.465383         0.247011
 H        -2.737815        -0.728296         0.527469
