19
Iteration:  2941
 O         0.078035        -0.009646        -0.037305
 C        -0.971178         0.499110         0.656870
 C        -1.312959         1.976271         0.947379
 C        -2.343226         1.229621         1.767021
 C        -1.189254         0.327154         2.294911
 C        -3.834771         1.554024         2.107653
 C        -4.283325         1.834993         0.585254
 O        -3.434632         1.007597        -0.411291
 C        -2.570279         0.372589         0.501538
 H        -0.176283        -0.346910        -0.899772
 H        -0.604490         2.578918         1.500194
 H        -1.697840         2.563421         0.081494
 H        -0.490345         0.955390         2.852848
 H        -1.341994        -0.747476         2.654614
 H        -4.228722         0.551075         2.393429
 H        -4.207044         2.324551         2.766742
 H        -5.300494         1.385987         0.329646
 H        -3.904867         2.873125         0.485508
 H        -2.759387        -0.671573         0.820939
