19
Iteration:   951
 O         0.158103        -0.025691         0.086181
 C        -0.933591         0.530068         0.701107
 C        -1.176346         2.062035         1.014882
 C        -2.358964         1.214916         1.713553
 C        -1.264193         0.114420         2.201311
 C        -3.870587         1.715132         1.985838
 C        -4.475841         1.628692         0.571339
 O        -3.324658         1.193992        -0.347412
 C        -2.580912         0.351796         0.456122
 H        -0.245908        -0.620642        -0.638894
 H        -0.494826         2.452571         1.739289
 H        -1.429981         2.698868         0.127047
 H        -0.564599         0.404008         2.992241
 H        -1.532690        -0.873681         2.202174
 H        -4.432106         1.097618         2.696068
 H        -3.992493         2.790139         2.285174
 H        -5.269996         0.857144         0.483303
 H        -4.738399         2.594113         0.180427
 H        -3.174810        -0.532030         0.524224
