19
Iteration:  3979charge 0 multiplicity 1
 O         0.139152        -0.020906         0.071706
 C        -0.946801         0.539360         0.755632
 C        -1.266186         2.026565         0.821451
 C        -2.373992         1.087828         1.705236
 C        -1.177397         0.233488         2.290999
 C        -3.759223         1.636260         2.060929
 C        -4.319065         1.755198         0.572960
 O        -3.421746         1.153043        -0.329235
 C        -2.659574         0.259875         0.451113
 H         0.027725         0.600876        -0.653899
 H        -0.837041         2.684342         1.540722
 H        -1.764288         2.514386        -0.064665
 H        -0.536606         0.837700         3.007107
 H        -1.369586        -0.779191         2.465097
 H        -4.432336         0.867950         2.475302
 H        -4.000167         2.518254         2.601750
 H        -5.275333         1.137092         0.593962
 H        -4.650521         2.730500         0.140953
 H        -3.080798        -0.734531         0.257133
