19
Iteration:  4343charge 0 multiplicity 1
 O         0.187889        -0.001802         0.026924
 C        -0.962016         0.570483         0.641020
 C        -1.182915         1.986787         1.059308
 C        -2.422107         1.260864         1.745239
 C        -1.262132         0.273053         2.148762
 C        -3.840711         1.718380         1.983016
 C        -4.507780         1.561741         0.582962
 O        -3.349715         1.087599        -0.351263
 C        -2.500416         0.391193         0.481438
 H        -0.274036        -0.760354        -0.370605
 H        -0.562989         2.385423         1.904978
 H        -1.479128         2.693827         0.300759
 H        -0.462441         0.458640         2.892086
 H        -1.710447        -0.801690         2.321410
 H        -4.319699         1.082264         2.711364
 H        -3.960461         2.791538         2.359543
 H        -5.211888         0.699270         0.708083
 H        -4.868927         2.527764         0.104327
 H        -2.890629        -0.632075         0.689518
