19
Iteration:   120charge 0 multiplicity 1
 O        -0.006282         0.016456        -0.101070
 C        -0.989753         0.504024         0.770907
 C        -1.146710         2.042977         1.141613
 C        -2.326800         1.238667         1.785576
 C        -1.284715         0.156792         2.268289
 C        -3.785813         1.823722         1.916626
 C        -4.384965         1.628364         0.509961
 O        -3.446047         1.019279        -0.425660
 C        -2.503596         0.345163         0.496037
 H         0.841462        -0.278417         0.393328
 H        -0.539141         2.508848         1.872502
 H        -1.484779         2.597942         0.314539
 H        -0.428379         0.570473         2.750644
 H        -1.591338        -0.734915         2.699231
 H        -4.377202         1.364076         2.712179
 H        -3.742558         2.861661         2.211098
 H        -5.145383         0.838670         0.566107
 H        -4.876508         2.467297        -0.042286
 H        -2.832780        -0.684799         0.410334
