19
Iteration:   643charge 0 multiplicity 1
 O         0.154875        -0.004578         0.065126
 C        -1.030691         0.539437         0.725241
 C        -1.255611         2.028281         0.924736
 C        -2.327626         1.281204         1.758538
 C        -1.295051         0.160157         2.186356
 C        -3.849319         1.680476         1.945253
 C        -4.363558         1.670618         0.467998
 O        -3.326430         1.106389        -0.293038
 C        -2.553676         0.352442         0.585102
 H        -0.059577        -0.726254        -0.619262
 H        -0.432946         2.471430         1.501003
 H        -1.570342         2.720474         0.099029
 H        -0.539789         0.375886         2.900914
 H        -1.622823        -0.901038         2.296181
 H        -4.357055         0.885177         2.539363
 H        -4.233886         2.543258         2.531222
 H        -5.394227         1.305693         0.344787
 H        -4.391924         2.762803         0.297775
 H        -3.013934        -0.652565         0.778016
