19
Iteration:  1433charge 0 multiplicity 1
 O         0.214718         0.041907         0.010979
 C        -1.032509         0.535670         0.690364
 C        -1.275030         1.950636         1.142300
 C        -2.442371         1.112854         1.775110
 C        -1.353358         0.064852         2.186951
 C        -3.774327         1.737677         2.093580
 C        -4.314293         1.834823         0.463640
 O        -3.407184         1.121796        -0.352947
 C        -2.513613         0.302130         0.419751
 H        -0.030438         0.147944        -0.901021
 H        -0.537742         2.305678         1.888985
 H        -1.482534         2.582876         0.275457
 H        -0.546699         0.303360         2.971931
 H        -1.701525        -1.006477         2.080126
 H        -4.361755         1.081887         2.650900
 H        -3.599579         2.744944         2.495385
 H        -5.447857         1.570220         0.385565
 H        -4.157560         2.878581         0.162486
 H        -3.061795        -0.733502         0.342968
