19
Iteration:   885charge 0 multiplicity 1
 O         0.081726         0.043939        -0.086423
 C        -1.002438         0.511499         0.748645
 C        -1.292581         1.962304         0.987376
 C        -2.402803         1.150093         1.834148
 C        -1.266076         0.163838         2.359292
 C        -3.839258         1.695159         2.024880
 C        -4.271839         1.893030         0.462553
 O        -3.352641         0.977518        -0.367009
 C        -2.567821         0.272555         0.466041
 H         0.554944         0.717162        -0.532922
 H        -0.555359         2.549196         1.550027
 H        -1.643177         2.472265         0.087673
 H        -0.546320         0.645507         3.034527
 H        -1.587722        -0.784811         2.621152
 H        -4.440766         0.872480         2.407819
 H        -4.014968         2.650433         2.587842
 H        -5.320718         1.566399         0.233870
 H        -4.033608         2.846978         0.013662
 H        -2.841512        -0.711003         0.792916
