19
Iteration:  4550
 O        -0.052971         0.073645        -0.170952
 C        -0.968397         0.580588         0.722312
 C        -1.240428         2.037314         1.073919
 C        -2.451630         1.278761         1.827118
 C        -1.239487         0.226776         2.215115
 C        -3.861782         1.727112         2.026555
 C        -4.327839         1.569574         0.432135
 O        -3.280164         1.006757        -0.323727
 C        -2.486730         0.279123         0.614383
 H         0.876871         0.134783         0.105982
 H        -0.597261         2.533370         1.839111
 H        -1.544361         2.655966         0.155071
 H        -0.471391         0.534314         2.856602
 H        -1.564218        -0.851727         2.355099
 H        -4.485286         0.952460         2.434297
 H        -3.980515         2.801082         2.368510
 H        -5.169695         0.874954         0.439754
 H        -4.664762         2.476246        -0.083575
 H        -2.633634        -0.827474         0.639608
