19
Iteration:  1005charge 0 multiplicity 1
 O         0.065748         0.178084        -0.081976
 C        -0.957983         0.463728         0.722261
 C        -1.226747         1.921014         1.185422
 C        -2.407475         1.115441         1.782667
 C        -1.357908         0.087824         2.161881
 C        -3.713533         1.899101         1.942865
 C        -4.423799         1.595140         0.467258
 O        -3.322331         1.136507        -0.315034
 C        -2.493644         0.336797         0.530338
 H         0.183179        -0.837691        -0.102316
 H        -0.498929         2.448343         1.741402
 H        -1.479200         2.503022         0.238806
 H        -0.669718         0.404657         2.957477
 H        -1.811928        -0.829527         2.341219
 H        -4.448665         1.518076         2.682406
 H        -3.497666         3.002837         2.091218
 H        -5.279734         0.880257         0.553564
 H        -4.859929         2.444321        -0.053320
 H        -3.029643        -0.628743         0.525844
