19
Iteration:  2171
 O         0.159751        -0.210799         0.038975
 C        -0.957707         0.577612         0.643307
 C        -1.365855         2.124731         0.902343
 C        -2.394249         1.210105         1.718118
 C        -1.144987         0.294899         2.108627
 C        -3.878038         1.583652         2.060287
 C        -4.337075         1.774136         0.629787
 O        -3.432436         1.048050        -0.316399
 C        -2.567752         0.355541         0.537810
 H         0.836173         0.442880        -0.284875
 H        -0.713083         2.518819         1.748342
 H        -1.819127         2.809727         0.167505
 H        -0.278512         0.501294         2.725279
 H        -1.500402        -0.644085         2.364027
 H        -4.467923         0.831352         2.653655
 H        -3.987107         2.567057         2.471195
 H        -5.306127         1.316269         0.474448
 H        -4.240037         2.817065         0.269700
 H        -2.891020        -0.655326         0.781595
