19
Iteration:  3060
 O        -0.065558        -0.079216         0.021399
 C        -0.989234         0.607812         0.670506
 C        -1.354944         2.079732         0.962689
 C        -2.363086         1.151388         1.769525
 C        -1.178436         0.320094         2.194388
 C        -3.796006         1.511447         2.025229
 C        -4.320579         1.861066         0.546067
 O        -3.383632         1.038553        -0.312544
 C        -2.467804         0.268292         0.425225
 H         0.865991         0.160645         0.230308
 H        -0.554427         2.615506         1.504062
 H        -1.741219         2.627156         0.079773
 H        -0.268308         0.682790         2.631294
 H        -1.338061        -0.821221         2.269501
 H        -4.305440         0.729688         2.580635
 H        -3.789112         2.319599         2.752938
 H        -5.443448         1.526585         0.558957
 H        -4.318521         2.961355         0.376097
 H        -2.765088        -0.794964         0.684357
