19
Iteration:  2656
 O        -0.039842         0.019050        -0.119586
 C        -1.011721         0.599561         0.682998
 C        -1.289109         2.049968         0.900389
 C        -2.346406         1.202737         1.788349
 C        -1.271122         0.305145         2.268599
 C        -3.776325         1.635982         2.091697
 C        -4.236968         1.777277         0.527176
 O        -3.398417         0.930464        -0.291497
 C        -2.498355         0.186927         0.537761
 H         0.810913         0.516236        -0.152747
 H        -0.773156         2.853416         1.444941
 H        -1.751114         2.409859         0.001791
 H        -0.457125         0.643743         2.901474
 H        -1.671902        -0.745115         2.416216
 H        -4.380512         0.750174         2.518377
 H        -3.979775         2.575975         2.661320
 H        -5.267450         1.621658         0.348521
 H        -3.993620         2.879125         0.469373
 H        -2.845001        -0.838738         0.539453
