19
Iteration:  1493charge 0 multiplicity 1
 O        -0.006769         0.170701        -0.229623
 C        -1.030439         0.531822         0.683401
 C        -1.318792         1.930660         1.127581
 C        -2.399959         1.089899         1.748263
 C        -1.410534         0.127718         2.371062
 C        -3.805678         1.591565         1.985669
 C        -4.134478         1.980049         0.555341
 O        -3.267863         1.091400        -0.385257
 C        -2.500685         0.213650         0.524283
 H         0.153225        -0.782773        -0.075342
 H        -0.631052         2.525954         1.762202
 H        -1.714782         2.540662         0.290296
 H        -0.786866         0.440809         3.139338
 H        -1.676434        -0.905287         2.447701
 H        -4.563114         0.713850         2.258162
 H        -4.018848         2.328648         2.771499
 H        -5.170055         2.116700         0.217431
 H        -3.578851         2.966189         0.393723
 H        -2.886889        -0.757966         0.811750
