19
Iteration:   464
 O         0.113280        -0.021546         0.057836
 C        -1.029826         0.475202         0.744089
 C        -1.280001         1.948581         0.973602
 C        -2.362601         1.146213         1.774682
 C        -1.183434         0.255780         2.230429
 C        -3.873931         1.656487         2.084773
 C        -4.404609         1.771844         0.473224
 O        -3.274163         1.188533        -0.400497
 C        -2.549028         0.340766         0.456565
 H        -0.129655        -0.672463        -0.657241
 H        -0.515037         2.498538         1.576311
 H        -1.604599         2.603191         0.210178
 H        -0.535009         0.720899         2.992404
 H        -1.456310        -0.727083         2.441885
 H        -4.543120         0.831486         2.491794
 H        -4.077952         2.611721         2.626120
 H        -5.405868         1.211945         0.429086
 H        -4.535211         2.791938         0.184190
 H        -2.889074        -0.716838         0.478164
