19
Iteration:  3984charge 0 multiplicity 1
 O         0.127111         0.007324         0.119946
 C        -0.938359         0.565706         0.737152
 C        -1.279028         2.029590         0.839261
 C        -2.385778         1.075226         1.696367
 C        -1.176076         0.206755         2.248402
 C        -3.725514         1.652570         2.052296
 C        -4.371590         1.745572         0.581213
 O        -3.427631         1.126525        -0.331133
 C        -2.648989         0.276308         0.448211
 H         0.254775         0.466271        -0.770209
 H        -0.604391         2.659558         1.500821
 H        -1.684409         2.443666        -0.069331
 H        -0.512736         0.657135         3.000362
 H        -1.334180        -0.885093         2.595856
 H        -4.428442         0.966286         2.560967
 H        -3.808137         2.660617         2.576191
 H        -5.335903         1.250758         0.473191
 H        -4.805897         2.679114         0.206624
 H        -3.099873        -0.704848         0.213729
