19
Iteration:  4256charge 0 multiplicity 1
 O        -0.016716         0.024872        -0.126535
 C        -0.952754         0.521746         0.805652
 C        -1.237257         2.042769         1.065065
 C        -2.437171         1.162218         1.713831
 C        -1.101507         0.158140         2.287394
 C        -3.851013         1.731702         1.947118
 C        -4.460248         1.735201         0.480636
 O        -3.330879         1.070285        -0.352502
 C        -2.481908         0.239239         0.507813
 H         0.893693         0.244121         0.188999
 H        -0.690248         2.638950         1.829164
 H        -1.494911         2.694304         0.294156
 H        -0.600690         0.754953         2.914902
 H        -1.475123        -0.866140         2.412881
 H        -4.408236         1.093399         2.583163
 H        -3.950461         2.682504         2.527163
 H        -5.401441         1.146474         0.550639
 H        -4.640143         2.755875         0.114104
 H        -2.885801        -0.804956         0.686596
