19
Iteration:  3448
 O         0.098698         0.082421        -0.134732
 C        -0.939016         0.460463         0.690743
 C        -1.157423         2.031615         1.135835
 C        -2.330754         1.298855         1.804148
 C        -1.372092         0.155126         2.280583
 C        -3.710176         1.919881         1.919805
 C        -4.469436         1.306653         0.603374
 O        -3.421107         1.136850        -0.337768
 C        -2.485843         0.335894         0.479087
 H        -0.224129         0.042606        -1.072302
 H        -0.337693         2.319236         1.806571
 H        -1.425294         2.805566         0.459464
 H        -0.604512         0.483127         3.098935
 H        -1.972271        -0.748192         2.382572
 H        -4.401839         1.693967         2.728668
 H        -3.571998         2.993832         1.862109
 H        -5.069735         0.380685         0.659031
 H        -5.168734         2.081695         0.264291
 H        -2.957566        -0.699739         0.544788
