19
Iteration:  3676charge 0 multiplicity 1
 O         0.123008        -0.124463         0.041684
 C        -0.916413         0.579602         0.642841
 C        -1.361925         2.074943         0.892695
 C        -2.344840         1.267481         1.720543
 C        -1.307005         0.241718         2.258722
 C        -3.792028         1.571331         2.165048
 C        -4.396102         1.608437         0.560110
 O        -3.349399         1.220791        -0.341943
 C        -2.504130         0.341868         0.463085
 H         0.239479         0.182683        -0.908800
 H        -0.504862         2.511638         1.415187
 H        -1.764298         2.514039        -0.006977
 H        -0.716912         0.693844         3.092020
 H        -1.596160        -0.719019         2.461459
 H        -4.221250         0.798366         2.841609
 H        -3.982710         2.554923         2.566065
 H        -5.102799         0.752334         0.414864
 H        -4.856157         2.621705         0.233841
 H        -2.873055        -0.714094         0.399504
