19
Iteration:  3532
 O         0.036608         0.008348         0.028488
 C        -0.984456         0.558711         0.748870
 C        -1.275933         2.073122         0.884776
 C        -2.292621         1.278659         1.678428
 C        -1.245212         0.287993         2.269276
 C        -3.757554         1.501836         1.992539
 C        -4.326778         1.819057         0.614331
 O        -3.489297         0.946060        -0.351709
 C        -2.540767         0.270501         0.510012
 H         0.286908         0.503269        -0.748163
 H        -0.616506         2.754895         1.537639
 H        -1.634394         2.569666        -0.048859
 H        -0.358587         0.499154         2.847044
 H        -1.413046        -0.765646         2.469038
 H        -4.111193         0.529874         2.391466
 H        -4.050774         2.309556         2.714585
 H        -5.381834         1.608789         0.401497
 H        -3.900513         2.867082         0.535766
 H        -2.979397        -0.672675         0.830576
