19
Iteration:   788
 O        -0.012295        -0.011903        -0.022587
 C        -1.033149         0.566546         0.675521
 C        -1.315173         2.019821         1.007805
 C        -2.376233         1.205577         1.847525
 C        -1.134041         0.217011         2.214171
 C        -3.893193         1.657054         1.943980
 C        -4.263515         1.721670         0.424447
 O        -3.297386         1.062567        -0.330425
 C        -2.606438         0.319208         0.555429
 H         0.608562        -0.060610         0.660772
 H        -0.396518         2.525394         1.456327
 H        -1.597871         2.558202         0.105880
 H        -0.173360         0.527788         2.799163
 H        -1.454982        -0.799543         2.382640
 H        -4.394485         0.863958         2.460333
 H        -4.093680         2.573254         2.508424
 H        -5.273534         1.276397         0.140607
 H        -4.196317         2.833001         0.307635
 H        -3.092781        -0.632843         0.931495
