19
Iteration:  3722charge 0 multiplicity 1
 O         0.174252         0.037388        -0.075762
 C        -0.991343         0.545102         0.608222
 C        -1.194265         2.039333         1.120240
 C        -2.388902         1.196443         1.839707
 C        -1.287951         0.119032         2.210609
 C        -3.702316         1.937149         2.063799
 C        -4.490372         1.535190         0.447936
 O        -3.470169         0.972421        -0.351512
 C        -2.536664         0.311397         0.493344
 H         0.530569         0.923976        -0.310085
 H        -0.471357         2.309330         1.852589
 H        -1.589606         2.851609         0.435596
 H        -0.443504         0.212505         2.898743
 H        -1.706246        -0.828846         2.151309
 H        -4.424044         1.455318         2.719315
 H        -3.475386         2.945442         2.394294
 H        -5.415556         0.977414         0.808848
 H        -4.736350         2.446898        -0.081276
 H        -2.908613        -0.703208         0.692632
