19
Iteration:  4204
 O        -0.011693         0.063318        -0.059760
 C        -0.971831         0.532230         0.790863
 C        -1.355164         2.041051         0.979955
 C        -2.421671         1.140637         1.785810
 C        -1.221807         0.209842         2.264720
 C        -3.822612         1.587745         1.958964
 C        -4.160051         1.857505         0.460080
 O        -3.430609         0.945936        -0.306446
 C        -2.499701         0.285578         0.546526
 H         0.426303         0.763960        -0.605532
 H        -0.609246         2.567609         1.604860
 H        -1.663774         2.601464         0.054225
 H        -0.449333         0.648285         2.939609
 H        -1.569866        -0.877716         2.474080
 H        -4.418201         0.791838         2.445323
 H        -3.982003         2.577561         2.458896
 H        -5.233552         1.818273         0.275191
 H        -3.710712         2.840455         0.319097
 H        -2.762135        -0.786205         0.590387
