19
Iteration:  4060charge 0 multiplicity 1
 O         0.121906         0.006455        -0.078697
 C        -1.023240         0.545221         0.665507
 C        -1.226560         2.003877         1.067353
 C        -2.398634         1.185383         1.761175
 C        -1.303424         0.225301         2.254005
 C        -3.784239         1.791823         2.047288
 C        -4.404706         1.580220         0.524524
 O        -3.319050         1.132264        -0.373887
 C        -2.544651         0.255976         0.536146
 H         0.120111         0.502650        -0.905375
 H        -0.445781         2.420537         1.776434
 H        -1.530202         2.664510         0.262247
 H        -0.542180         0.475364         2.988793
 H        -1.605037        -0.833874         2.646600
 H        -4.362818         1.110084         2.680476
 H        -3.733849         2.890503         2.323336
 H        -5.101221         0.691519         0.677331
 H        -4.811200         2.449870        -0.000833
 H        -3.079915        -0.684870         0.655083
