19
Iteration:   202charge 0 multiplicity 1
 O         0.162975        -0.010318        -0.030635
 C        -0.929063         0.510480         0.708912
 C        -1.368681         2.023730         1.045088
 C        -2.422543         1.174326         1.729322
 C        -1.336302         0.276772         2.241017
 C        -3.847089         1.659271         2.055914
 C        -4.220529         1.917977         0.445097
 O        -3.466269         0.927611        -0.266264
 C        -2.443151         0.304479         0.448064
 H        -0.277667        -0.724113        -0.524655
 H        -0.675020         2.510886         1.830077
 H        -1.633455         2.800749         0.252006
 H        -0.606792         0.786910         2.952619
 H        -1.686172        -0.800821         2.428293
 H        -4.377602         0.852185         2.577943
 H        -3.724315         2.597734         2.618640
 H        -5.244578         1.738615         0.077315
 H        -3.910897         2.902714         0.111592
 H        -2.677912        -0.791151         0.484686
