19
Iteration:  1051
 O        -0.017775         0.002524        -0.118235
 C        -0.994919         0.555786         0.743450
 C        -1.259706         1.973074         1.104380
 C        -2.406460         1.200783         1.738185
 C        -1.328739         0.177083         2.309610
 C        -3.771721         1.655649         2.009376
 C        -4.259232         1.689344         0.467726
 O        -3.310665         1.144689        -0.345623
 C        -2.507858         0.377454         0.459828
 H         0.381115        -0.888208        -0.053902
 H        -0.615869         2.449417         1.855601
 H        -1.561450         2.758492         0.333252
 H        -0.641364         0.661404         2.946195
 H        -1.475154        -0.861708         2.459360
 H        -4.376843         0.953755         2.624621
 H        -3.861912         2.701363         2.312892
 H        -5.260439         1.189732         0.369646
 H        -4.523313         2.752489         0.154665
 H        -2.941435        -0.658239         0.560036
