19
Iteration:  4364
 O         0.055574         0.024475         0.001127
 C        -1.002632         0.553184         0.754420
 C        -1.320125         2.152654         0.985309
 C        -2.377742         1.186873         1.724850
 C        -1.297441         0.177111         2.345688
 C        -3.712187         1.698430         2.038289
 C        -4.345761         1.565533         0.501777
 O        -3.338515         1.086099        -0.396396
 C        -2.467555         0.338534         0.434340
 H        -0.426389        -0.328209        -0.801749
 H        -0.575022         2.761442         1.590914
 H        -1.760320         2.634810         0.140262
 H        -0.589199         0.409308         3.153971
 H        -1.707743        -0.908683         2.514919
 H        -4.227209         1.095399         2.786371
 H        -3.652524         2.798987         2.288520
 H        -5.100363         0.758753         0.502037
 H        -4.780440         2.585054         0.341172
 H        -2.841526        -0.680938         0.527788
