19
Iteration:  2726
 O         0.052517         0.104976        -0.260161
 C        -0.977953         0.573079         0.678400
 C        -1.364168         2.030353         0.992324
 C        -2.351985         1.172976         1.756474
 C        -1.303327         0.223623         2.297051
 C        -3.750074         1.697204         1.984210
 C        -4.250486         1.814879         0.527084
 O        -3.436935         0.840472        -0.219438
 C        -2.543076         0.198815         0.627930
 H         0.957672         0.364452         0.065014
 H        -0.760859         2.806790         1.602365
 H        -1.711248         2.680898         0.108988
 H        -0.550055         0.656994         2.964396
 H        -1.829882        -0.652956         2.611298
 H        -4.259814         1.020654         2.730184
 H        -3.738937         2.754131         2.297553
 H        -5.403478         1.768555         0.263645
 H        -3.806498         2.794135         0.141576
 H        -2.736848        -0.906708         0.658816
