19
Iteration:  2261
 O        -0.116605         0.065230        -0.148337
 C        -0.967766         0.570362         0.753199
 C        -1.258311         1.994461         1.083734
 C        -2.442337         1.171462         1.753210
 C        -1.142756         0.129994         2.196748
 C        -3.707072         1.874340         1.919110
 C        -4.468531         1.548893         0.505081
 O        -3.280448         1.027527        -0.278947
 C        -2.561014         0.317352         0.562713
 H         0.831415         0.095641         0.096068
 H        -0.633205         2.500164         1.897722
 H        -1.650622         2.710652         0.340367
 H        -0.320386         0.600540         2.777013
 H        -1.306245        -0.865861         2.537708
 H        -4.203563         1.532803         2.782876
 H        -3.563062         2.975464         1.976395
 H        -5.232502         0.797870         0.566777
 H        -4.666665         2.571026         0.105038
 H        -2.814497        -0.729591         0.602061
