19
Iteration:  2626
 O         0.106920        -0.057838        -0.042936
 C        -0.974926         0.515574         0.638382
 C        -1.254177         1.982541         0.923198
 C        -2.363437         1.203881         1.762402
 C        -1.220240         0.337726         2.212004
 C        -3.763520         1.674378         2.060581
 C        -4.355686         1.728823         0.607684
 O        -3.460374         1.059402        -0.337306
 C        -2.586564         0.283738         0.514908
 H         0.872664         0.535264        -0.028923
 H        -0.604097         2.671495         1.607522
 H        -1.643116         2.541465         0.034494
 H        -0.488423         0.864354         2.744141
 H        -1.507620        -0.685506         2.516888
 H        -4.255561         0.751545         2.514038
 H        -3.953321         2.470709         2.764263
 H        -5.384484         1.161617         0.579960
 H        -4.727366         2.686372         0.203049
 H        -2.908477        -0.788591         0.650916
