19
Iteration:  1865
 O         0.257643         0.003751        -0.022404
 C        -0.918163         0.457143         0.760634
 C        -1.211493         1.923335         1.023699
 C        -2.368818         1.206998         1.686698
 C        -1.440916         0.163998         2.219526
 C        -3.814511         1.666792         2.011721
 C        -4.417083         1.728372         0.651969
 O        -3.441471         1.230573        -0.331045
 C        -2.486683         0.363395         0.384142
 H        -0.099956        -0.344161        -0.835469
 H        -0.648360         2.537634         1.709073
 H        -1.401827         2.435885         0.035610
 H        -0.647758         0.433442         3.023605
 H        -1.878804        -0.873454         2.510127
 H        -4.272967         0.940246         2.701233
 H        -3.899914         2.555605         2.569070
 H        -5.409046         1.290988         0.550591
 H        -4.480140         2.809587         0.359065
 H        -2.895822        -0.690365         0.309016
