19
Iteration:   931
 O         0.100381        -0.128086         0.061237
 C        -1.003091         0.530554         0.694891
 C        -1.257930         2.033548         1.067562
 C        -2.412904         1.216505         1.850473
 C        -1.217393         0.192968         2.160591
 C        -3.864097         1.667439         2.004446
 C        -4.377339         1.686351         0.445407
 O        -3.363096         1.170875        -0.394410
 C        -2.446275         0.439684         0.554844
 H        -0.241365        -0.317086        -0.806655
 H        -0.513309         2.532113         1.658566
 H        -1.766837         2.649700         0.233913
 H        -0.356131         0.598408         2.697957
 H        -1.506300        -0.853582         2.358877
 H        -4.349046         0.868405         2.552082
 H        -3.905998         2.598971         2.522809
 H        -5.200853         0.932408         0.391017
 H        -4.714156         2.685672         0.063410
 H        -2.765464        -0.621889         0.463523
