19
Iteration:   382charge 0 multiplicity 1
 O         0.128914         0.104668        -0.086980
 C        -0.956269         0.466282         0.743051
 C        -1.346044         1.936285         1.039494
 C        -2.429518         1.108880         1.781069
 C        -1.313352         0.130308         2.303135
 C        -3.754225         1.909529         1.959788
 C        -4.370028         1.666067         0.538055
 O        -3.291478         1.205441        -0.394939
 C        -2.517925         0.225939         0.505451
 H        -0.032481        -0.830200         0.013607
 H        -0.784651         2.375031         1.854596
 H        -1.693086         2.514329         0.172551
 H        -0.495360         0.401223         2.953657
 H        -1.589897        -0.944243         2.504997
 H        -4.420424         1.540711         2.713061
 H        -3.755348         2.977007         2.033597
 H        -5.114657         0.901144         0.590143
 H        -4.889165         2.582959         0.098323
 H        -2.843230        -0.830198         0.467833
