19
Iteration:  4251
 O        -0.022487         0.013804        -0.157209
 C        -0.947268         0.539722         0.786630
 C        -1.174626         2.025593         1.112789
 C        -2.407153         1.197293         1.700164
 C        -1.142883         0.178787         2.320593
 C        -3.894947         1.715552         1.969777
 C        -4.420999         1.722334         0.469240
 O        -3.376449         1.052689        -0.336897
 C        -2.491206         0.245118         0.473100
 H         0.858698         0.393971         0.041372
 H        -0.616720         2.633651         1.832399
 H        -1.563698         2.590288         0.176022
 H        -0.553576         0.805331         3.163472
 H        -1.421156        -0.859278         2.525759
 H        -4.469693         0.949072         2.609047
 H        -3.978743         2.686040         2.451766
 H        -5.344911         1.134651         0.293315
 H        -4.425210         2.802094         0.195583
 H        -2.833126        -0.739144         0.756912
