19
Iteration:  3642
 O         0.014218        -0.033663         0.016176
 C        -0.954982         0.629997         0.661233
 C        -1.295969         2.056909         1.061355
 C        -2.333053         1.203166         1.746977
 C        -1.114500         0.247475         2.239618
 C        -3.783689         1.577060         1.987589
 C        -4.418109         1.649499         0.487626
 O        -3.395931         1.118104        -0.330361
 C        -2.523856         0.301273         0.496238
 H        -0.355570        -0.439784        -0.807056
 H        -0.459751         2.596447         1.621818
 H        -1.583479         2.828342         0.383499
 H        -0.490017         0.816423         2.929258
 H        -1.299546        -0.735168         2.631262
 H        -4.348716         0.823067         2.583338
 H        -3.899286         2.558098         2.473430
 H        -5.457251         1.191733         0.523311
 H        -4.590138         2.771325         0.189229
 H        -2.792270        -0.787014         0.468771
