19
Iteration:  2111charge 0 multiplicity 1
 O         0.151879         0.206567        -0.137735
 C        -1.021082         0.493548         0.639382
 C        -1.294286         1.893900         0.999816
 C        -2.373278         1.184007         1.832990
 C        -1.256043         0.178789         2.273392
 C        -3.840089         1.736228         1.942137
 C        -4.237283         1.886814         0.449338
 O        -3.439584         0.898232        -0.198310
 C        -2.535237         0.263304         0.607675
 H        -0.125902        -0.403954        -0.872143
 H        -0.446467         2.346528         1.430856
 H        -1.754024         2.684864         0.442864
 H        -0.519015         0.611885         2.960032
 H        -1.538893        -0.904811         2.443011
 H        -4.438606         0.951952         2.394353
 H        -4.052729         2.686541         2.544483
 H        -5.322988         1.624922         0.305161
 H        -4.197756         2.858759        -0.030978
 H        -2.785342        -0.813346         0.962436
