19
Iteration:  4564
 O        -0.015520         0.049256        -0.130896
 C        -1.007675         0.561921         0.720992
 C        -1.398861         2.049868         1.026717
 C        -2.346594         1.192924         1.774458
 C        -1.282781         0.223050         2.247916
 C        -3.835224         1.756303         2.019810
 C        -4.360991         1.489288         0.511811
 O        -3.220355         1.065694        -0.331540
 C        -2.442911         0.309232         0.469778
 H         0.801201         0.173035         0.414546
 H        -0.587279         2.472856         1.516068
 H        -1.723045         2.812507         0.309138
 H        -0.608680         0.600902         3.089380
 H        -1.567015        -0.825410         2.404650
 H        -4.137553         1.283874         2.955211
 H        -3.996719         2.784388         2.292037
 H        -5.254088         0.919753         0.349459
 H        -4.555193         2.494311         0.202200
 H        -2.973079        -0.590481         0.734884
