19
Iteration:  3407charge 0 multiplicity 1
 O         0.087725        -0.025844        -0.024476
 C        -0.992312         0.579793         0.660356
 C        -1.242425         2.088647         1.070810
 C        -2.321833         1.236657         1.791229
 C        -1.303305         0.233239         2.200960
 C        -3.771878         1.743406         2.063918
 C        -4.378394         1.524884         0.536945
 O        -3.419130         1.103036        -0.407592
 C        -2.446917         0.309545         0.508104
 H        -0.289977        -0.373704        -0.845522
 H        -0.525609         2.493063         1.763533
 H        -1.666226         2.811823         0.393134
 H        -0.414064         0.496992         2.709869
 H        -1.644391        -0.770984         2.330792
 H        -4.271236         1.160292         2.860997
 H        -3.889969         2.791788         2.327287
 H        -5.255113         0.861773         0.703470
 H        -4.870423         2.344824         0.104854
 H        -2.855451        -0.682576         0.712117
