19
Iteration:  1245
 O         0.228928        -0.057125         0.121636
 C        -0.972714         0.485461         0.697375
 C        -1.153142         1.982222         0.996931
 C        -2.427978         1.145553         1.789817
 C        -1.287282         0.165380         2.152617
 C        -3.851524         1.646048         2.034703
 C        -4.357955         1.783907         0.542117
 O        -3.474916         1.204130        -0.360090
 C        -2.579973         0.415619         0.423154
 H        -0.024440        -0.242443        -0.825415
 H        -0.387390         2.381903         1.609925
 H        -1.305443         2.685874         0.161177
 H        -0.538486         0.401933         2.914227
 H        -1.432011        -0.980056         2.198953
 H        -4.463405         0.857427         2.266861
 H        -3.966317         2.545168         2.634541
 H        -5.370996         1.229640         0.615534
 H        -4.498350         2.818055         0.297103
 H        -2.983984        -0.576343         0.445246
