19
Iteration:  3261
 O        -0.057528         0.015709        -0.179793
 C        -0.963606         0.547075         0.763562
 C        -1.308458         2.048542         0.894883
 C        -2.354774         1.204172         1.789735
 C        -1.265951         0.247182         2.273010
 C        -3.800012         1.690654         2.067839
 C        -4.344849         1.655114         0.535491
 O        -3.271181         1.012628        -0.318538
 C        -2.496764         0.301023         0.529218
 H         0.814263         0.326975         0.132973
 H        -0.706114         2.660891         1.550535
 H        -1.716167         2.542439        -0.007157
 H        -0.513453         0.416557         3.117658
 H        -1.830340        -0.727682         2.460163
 H        -4.283544         0.944073         2.724949
 H        -4.009100         2.742036         2.366536
 H        -5.402809         1.258340         0.532003
 H        -4.293756         2.799830         0.319706
 H        -2.862513        -0.787673         0.659793
