19
Iteration:  3680
 O         0.125502        -0.106304         0.019467
 C        -0.951125         0.561678         0.696961
 C        -1.323200         2.078343         0.892910
 C        -2.332035         1.232485         1.716646
 C        -1.312475         0.256627         2.298107
 C        -3.756805         1.579356         2.115984
 C        -4.429927         1.621449         0.552785
 O        -3.392594         1.213129        -0.311274
 C        -2.471976         0.333867         0.423248
 H         0.354529         0.278248        -0.830619
 H        -0.492768         2.520277         1.413946
 H        -1.745663         2.584034        -0.015900
 H        -0.716654         0.647808         3.123792
 H        -1.708130        -0.810231         2.344556
 H        -4.089606         0.828068         2.826707
 H        -3.880272         2.596763         2.515065
 H        -5.201616         0.827905         0.344049
 H        -4.931253         2.488856         0.224536
 H        -2.856254        -0.674833         0.504776
