19
Iteration:    78charge 0 multiplicity 1
 O         0.113594         0.036531        -0.008907
 C        -0.970155         0.491710         0.768467
 C        -1.277726         1.974971         0.997051
 C        -2.393340         1.231329         1.829407
 C        -1.329955         0.176618         2.299091
 C        -3.726424         1.861588         1.898754
 C        -4.388521         1.535102         0.594206
 O        -3.360219         1.148387        -0.396672
 C        -2.481374         0.336825         0.432003
 H        -0.215135        -0.638239        -0.601238
 H        -0.590493         2.655171         1.470229
 H        -1.717542         2.360201         0.094640
 H        -0.560922         0.380725         2.998604
 H        -1.665556        -0.818905         2.561512
 H        -4.381265         1.447987         2.630182
 H        -3.776580         2.957752         2.083502
 H        -5.074516         0.687392         0.782958
 H        -4.933626         2.386310         0.245147
 H        -2.796648        -0.707820         0.533540
