19
Iteration:  3094
 O         0.015017        -0.063958        -0.188919
 C        -0.945014         0.491478         0.737042
 C        -1.278438         1.970947         0.956146
 C        -2.343731         1.245724         1.790782
 C        -1.322074         0.357735         2.323469
 C        -3.783682         1.502138         2.054691
 C        -4.354843         1.762898         0.518043
 O        -3.360362         1.123070        -0.333576
 C        -2.516181         0.338483         0.536119
 H         0.821001         0.482473        -0.197267
 H        -0.548611         2.583071         1.503203
 H        -1.738755         2.508921         0.136308
 H        -0.444453         0.641200         2.848590
 H        -1.502370        -0.679558         2.756420
 H        -4.288283         0.658999         2.495475
 H        -3.957778         2.408054         2.575218
 H        -5.385301         1.185167         0.385613
 H        -4.417893         2.835144         0.122094
 H        -2.963257        -0.645908         0.869685
