19
Iteration:  4015charge 0 multiplicity 1
 O         0.268249        -0.009727         0.061077
 C        -0.897670         0.531816         0.643944
 C        -1.294350         2.102512         1.090218
 C        -2.400602         1.219290         1.714352
 C        -1.327827         0.135247         2.109319
 C        -3.731477         1.846247         2.046185
 C        -4.380374         1.646473         0.600219
 O        -3.509862         0.978840        -0.325344
 C        -2.640214         0.317429         0.405605
 H         0.533876         0.165673        -0.830426
 H        -0.577257         2.477805         1.846497
 H        -1.487325         2.909228         0.347501
 H        -0.535798         0.333415         2.898858
 H        -1.783095        -0.861460         2.396275
 H        -4.332492         1.182504         2.696798
 H        -3.699664         2.911405         2.382071
 H        -5.185150         0.902215         0.708989
 H        -4.600380         2.598928         0.188175
 H        -2.873163        -0.758022         0.413352
