19
Iteration:  4281charge 0 multiplicity 1
 O         0.099333         0.031090        -0.049613
 C        -1.065281         0.560992         0.643295
 C        -1.360984         2.018462         1.050572
 C        -2.400035         1.145702         1.825905
 C        -1.288368         0.182639         2.195445
 C        -3.749515         1.784507         2.054879
 C        -4.264382         1.560275         0.512993
 O        -3.315075         1.113494        -0.358977
 C        -2.521223         0.292513         0.420179
 H         0.650384        -0.215408         0.701025
 H        -0.722287         2.720715         1.525970
 H        -1.987126         2.645351         0.302701
 H        -0.568927         0.715795         2.871146
 H        -1.657569        -0.833173         2.272524
 H        -4.436468         1.452970         2.858204
 H        -3.721138         2.857182         2.250700
 H        -5.162987         0.913889         0.553453
 H        -4.639707         2.545760         0.255806
 H        -2.976058        -0.700920         0.634161
