19
Iteration:   715
 O         0.094585         0.002692         0.003952
 C        -1.033033         0.454315         0.716318
 C        -1.132928         1.935133         1.057177
 C        -2.378427         1.352544         1.795550
 C        -1.285582         0.067600         2.132299
 C        -3.832115         1.923112         1.923401
 C        -4.377438         1.488430         0.477924
 O        -3.321427         1.086123        -0.364442
 C        -2.625503         0.403517         0.554000
 H         0.671251         0.811936        -0.006705
 H        -0.458317         2.419764         1.750359
 H        -1.356033         2.709465         0.241158
 H        -0.615464         0.293965         2.991212
 H        -1.642153        -0.984718         2.353962
 H        -4.293763         1.434086         2.842079
 H        -4.061309         2.968570         2.179275
 H        -4.979205         0.690292         0.892134
 H        -5.002723         2.269454         0.073257
 H        -3.126412        -0.573465         0.700731
