19
Iteration:  4275
 O         0.071522         0.027837        -0.046882
 C        -1.037232         0.572812         0.648974
 C        -1.408450         1.985479         1.058922
 C        -2.388965         1.134397         1.832382
 C        -1.254409         0.201983         2.191686
 C        -3.763040         1.778676         2.015752
 C        -4.296803         1.606873         0.514669
 O        -3.316614         1.102991        -0.364464
 C        -2.539890         0.330334         0.471765
 H         0.776041        -0.171247         0.626328
 H        -0.638709         2.593748         1.624256
 H        -1.884396         2.513944         0.252223
 H        -0.392272         0.573617         2.835230
 H        -1.501106        -0.870873         2.330408
 H        -4.464219         1.327273         2.759248
 H        -3.638383         2.847926         2.272773
 H        -5.070613         0.819610         0.437091
 H        -4.604140         2.613512         0.143533
 H        -2.873474        -0.707073         0.620344
