19
Iteration:  1454
 O         0.068059         0.126185        -0.053405
 C        -0.943239         0.493345         0.682543
 C        -1.205282         1.968772         1.245303
 C        -2.417588         1.077428         1.802428
 C        -1.220894        -0.004268         2.146537
 C        -3.857599         1.730143         1.919612
 C        -4.268790         1.952809         0.483250
 O        -3.397353         1.039815        -0.404569
 C        -2.544947         0.331632         0.549301
 H        -0.202793        -0.531312        -0.749824
 H        -0.621973         2.460788         2.045941
 H        -1.753401         2.719340         0.722014
 H        -0.544763         0.454209         2.943387
 H        -1.651496        -1.016308         2.477447
 H        -4.427267         0.989596         2.321860
 H        -3.892714         2.689220         2.432396
 H        -5.371810         1.692510         0.512827
 H        -4.143381         2.952989         0.104904
 H        -3.091168        -0.705674         0.700685
