19
Iteration:  1979
 O         0.076129         0.048024        -0.069286
 C        -0.938145         0.568833         0.694215
 C        -1.258073         2.062499         1.083905
 C        -2.390138         1.097982         1.797918
 C        -1.192842         0.053193         2.175611
 C        -3.796607         1.834116         2.027081
 C        -4.381138         1.739237         0.527618
 O        -3.448332         1.024854        -0.341786
 C        -2.502280         0.370460         0.446752
 H        -0.017989        -0.908098         0.059045
 H        -0.430329         2.552885         1.612304
 H        -1.696207         2.677431         0.343513
 H        -0.579706         0.392897         2.980464
 H        -1.463916        -0.961737         2.392895
 H        -4.527129         1.296404         2.628801
 H        -3.651658         2.842999         2.522015
 H        -5.332696         1.139623         0.487325
 H        -4.585212         2.749187         0.176127
 H        -2.724295        -0.700766         0.468783
