19
Iteration:  2249charge 0 multiplicity 1
 O        -0.071730         0.027519        -0.225705
 C        -1.026511         0.542691         0.738720
 C        -1.333958         2.047294         1.148812
 C        -2.358468         1.159228         1.860982
 C        -1.093007         0.110783         2.226229
 C        -3.812338         1.902361         1.870230
 C        -4.332988         1.583659         0.543533
 O        -3.340979         1.045954        -0.351297
 C        -2.504836         0.251932         0.613669
 H         0.779818         0.414597         0.101147
 H        -0.467895         2.606595         1.663844
 H        -1.717894         2.601610         0.288527
 H        -0.493517         0.521961         3.046679
 H        -1.332390        -0.879046         2.271612
 H        -4.522293         1.688721         2.669035
 H        -3.601962         2.984550         1.925504
 H        -5.241667         0.945781         0.574880
 H        -4.799157         2.455290        -0.011400
 H        -2.934844        -0.739018         0.807331
