19
Iteration:   395charge 0 multiplicity 1
 O         0.085322         0.163365        -0.058961
 C        -1.002406         0.438033         0.755135
 C        -1.215882         1.868258         1.130738
 C        -2.414105         1.132047         1.783614
 C        -1.188010         0.088089         2.276609
 C        -3.787216         1.886436         1.876389
 C        -4.478775         1.649764         0.445779
 O        -3.316529         1.156625        -0.337919
 C        -2.604032         0.321357         0.516104
 H         0.394742        -0.780984        -0.187856
 H        -0.447909         2.343941         1.647105
 H        -1.434859         2.591464         0.325121
 H        -0.470209         0.491025         2.938460
 H        -1.534972        -0.880669         2.505731
 H        -4.337055         1.622052         2.752581
 H        -3.431593         2.917220         2.046204
 H        -5.331722         0.930688         0.417539
 H        -4.746835         2.625647        -0.029225
 H        -3.151732        -0.622777         0.657766
