19
Iteration:    53charge 0 multiplicity 1
 O         0.110106        -0.069108         0.037939
 C        -0.965849         0.519620         0.743041
 C        -1.150529         2.019115         1.017632
 C        -2.445827         1.202521         1.676426
 C        -1.376054         0.336232         2.253778
 C        -3.665773         1.741139         2.067456
 C        -4.418998         1.546815         0.517064
 O        -3.361571         1.139442        -0.398287
 C        -2.586968         0.279394         0.422189
 H        -0.023193         0.155795        -0.864958
 H        -0.609726         2.526469         1.798529
 H        -1.353802         2.679608         0.202510
 H        -0.670666         0.816022         2.953870
 H        -1.562379        -0.550907         2.763083
 H        -4.293250         1.279657         2.901335
 H        -3.626676         2.773738         2.316184
 H        -5.114059         0.707193         0.689919
 H        -4.999467         2.497386         0.158521
 H        -2.875780        -0.792795         0.608654
