19
Iteration:  2012
 O         0.174451        -0.021468         0.051281
 C        -0.945717         0.535299         0.660306
 C        -1.293914         2.048645         0.944582
 C        -2.395655         1.144067         1.679419
 C        -1.291434         0.247853         2.229876
 C        -3.708009         1.635299         2.114083
 C        -4.293918         1.819043         0.619494
 O        -3.464519         1.075108        -0.364308
 C        -2.636155         0.266249         0.439280
 H         0.083958        -0.150294        -0.946357
 H        -0.476666         2.426719         1.576008
 H        -1.629313         2.773316         0.249502
 H        -0.782263         0.776872         3.013198
 H        -1.626914        -0.739341         2.501969
 H        -4.273862         0.760001         2.419306
 H        -3.798945         2.496749         2.858513
 H        -5.248275         1.336458         0.353742
 H        -4.308328         2.843065         0.255090
 H        -2.994199        -0.781488         0.621173
