19
Iteration:   569
 O         0.065820         0.175131        -0.074420
 C        -0.988280         0.540566         0.760650
 C        -1.375977         1.910325         1.011718
 C        -2.395951         1.163559         1.824369
 C        -1.218616         0.083079         2.238336
 C        -3.853065         1.763009         1.935077
 C        -4.102821         1.922531         0.427617
 O        -3.472137         0.936996        -0.335342
 C        -2.574871         0.195588         0.609966
 H         0.914026        -0.015352         0.330655
 H        -0.609518         2.519525         1.463089
 H        -1.814173         2.265385         0.076635
 H        -0.531786         0.495634         3.032961
 H        -1.499687        -0.999432         2.207984
 H        -4.560923         1.209548         2.484676
 H        -3.956480         2.752931         2.372918
 H        -5.128019         1.862093         0.201330
 H        -3.785231         3.000919         0.176479
 H        -2.895753        -0.873884         0.652751
