19
Iteration:  1369
 O         0.038154        -0.111920        -0.104596
 C        -0.973684         0.516306         0.704081
 C        -1.130133         2.046934         1.087120
 C        -2.469836         1.167029         1.799053
 C        -1.286741         0.160715         2.197918
 C        -3.877119         1.673043         1.978630
 C        -4.376984         1.689373         0.554800
 O        -3.327983         1.235832        -0.340762
 C        -2.506348         0.413521         0.434130
 H         0.828942        -0.157624         0.488869
 H        -0.514913         2.451527         1.914246
 H        -1.429865         2.644917         0.211643
 H        -0.506611         0.471435         2.953355
 H        -1.581471        -0.889795         2.123515
 H        -4.458740         0.852224         2.621609
 H        -3.990221         2.573030         2.664917
 H        -5.326614         0.999047         0.535794
 H        -4.544784         2.650710         0.030388
 H        -2.866496        -0.616929         0.639816
