19
Iteration:    20charge 0 multiplicity 1
 O         0.034178        -0.141911         0.025582
 C        -0.916300         0.580169         0.800735
 C        -1.255953         2.109965         0.931232
 C        -2.365565         1.326880         1.809757
 C        -1.103444         0.074078         2.199335
 C        -3.795813         1.739063         2.023203
 C        -4.463687         1.686050         0.430231
 O        -3.414514         1.024292        -0.404821
 C        -2.546729         0.384452         0.618121
 H         0.765865         0.493461        -0.168490
 H        -0.660191         2.868400         1.381764
 H        -1.736319         2.429420         0.012694
 H        -0.334305         0.391379         2.909336
 H        -1.479418        -0.890183         2.221311
 H        -4.390320         0.910107         2.523330
 H        -4.025204         2.687596         2.449871
 H        -5.321422         1.005145         0.362887
 H        -4.776334         2.709902        -0.030323
 H        -3.062177        -0.577990         0.794433
