19
Iteration:  4994
 O         0.135992         0.074448        -0.029410
 C        -1.060763         0.614128         0.716012
 C        -1.380487         2.013709         1.012589
 C        -2.412697         1.134670         1.762244
 C        -1.232212         0.256300         2.250941
 C        -3.878054         1.609018         2.012746
 C        -4.235995         1.765536         0.575905
 O        -3.263600         1.021323        -0.357593
 C        -2.561190         0.221359         0.480978
 H        -0.051446         0.017918        -0.981013
 H        -0.681336         2.574487         1.695321
 H        -1.725611         2.726858         0.126634
 H        -0.481104         0.651489         2.907920
 H        -1.678838        -0.730496         2.345007
 H        -4.448521         0.804689         2.506258
 H        -3.917367         2.585747         2.576596
 H        -5.238557         1.382598         0.491265
 H        -4.119936         2.859857         0.293503
 H        -2.948230        -0.825894         0.632838
