19
Iteration:  2800
 O         0.080232        -0.089459        -0.016627
 C        -0.949195         0.591860         0.739163
 C        -1.250006         2.075650         0.941038
 C        -2.341909         1.247051         1.729145
 C        -1.232489         0.240668         2.246410
 C        -3.758118         1.682067         2.056287
 C        -4.524546         1.552488         0.653039
 O        -3.370091         1.092237        -0.394570
 C        -2.511292         0.412826         0.480048
 H        -0.354119        -0.237596        -0.865236
 H        -0.484715         2.629713         1.568591
 H        -1.386115         2.675512        -0.001849
 H        -0.490118         0.724281         2.874562
 H        -1.495845        -0.885938         2.460004
 H        -4.205006         0.954866         2.854478
 H        -3.792085         2.761614         2.319412
 H        -5.186008         0.747857         0.544859
 H        -4.767416         2.574515         0.269200
 H        -2.863866        -0.660373         0.552624
