19
Iteration:  2133
 O         0.139168         0.059943        -0.046374
 C        -0.939295         0.500663         0.733773
 C        -1.323006         2.013556         0.956593
 C        -2.426992         1.148838         1.711130
 C        -1.240521         0.284034         2.262147
 C        -3.787953         1.644651         2.063264
 C        -4.233891         1.837443         0.600360
 O        -3.457977         0.930206        -0.399010
 C        -2.603724         0.260160         0.528016
 H        -0.163874         0.322578        -0.925895
 H        -0.688732         2.583282         1.580377
 H        -1.399499         2.598434         0.028993
 H        -0.437880         0.723536         2.871159
 H        -1.633248        -0.717725         2.640393
 H        -4.359610         0.944222         2.674664
 H        -3.731377         2.628815         2.623169
 H        -5.331574         1.720934         0.462654
 H        -4.067174         2.884921         0.348237
 H        -2.897883        -0.854397         0.694564
