19
Iteration:  3462charge 0 multiplicity 1
 O         0.087604         0.008742        -0.067435
 C        -1.050994         0.632829         0.638354
 C        -1.252345         2.019327         1.106146
 C        -2.378271         1.188592         1.790684
 C        -1.351747         0.134027         2.262546
 C        -3.735175         1.943268         1.949358
 C        -4.398459         1.385022         0.686226
 O        -3.330968         1.103221        -0.387638
 C        -2.486379         0.376432         0.429624
 H        -0.122295         0.056546        -1.006008
 H        -0.534961         2.470395         1.756073
 H        -1.587084         2.678448         0.301832
 H        -0.631233         0.329468         2.990747
 H        -1.634579        -0.897290         2.450691
 H        -4.184671         1.700412         2.934167
 H        -3.607983         3.017073         1.837052
 H        -4.607570         0.415445         1.119620
 H        -5.087267         1.963697         0.136883
 H        -2.743128        -0.715819         0.539825
