19
Iteration:  3431charge 0 multiplicity 1
 O         0.082172         0.089645        -0.126302
 C        -0.944681         0.560897         0.769984
 C        -1.028776         1.948242         1.136382
 C        -2.368551         1.247988         1.693941
 C        -1.321445         0.163250         2.259158
 C        -3.807582         1.786726         1.890146
 C        -4.497449         1.449956         0.601015
 O        -3.424251         1.092691        -0.351492
 C        -2.506933         0.433242         0.545627
 H        -0.406964        -0.030577        -0.981142
 H        -0.384156         2.394870         1.898662
 H        -1.060297         2.488956         0.140341
 H        -0.614560         0.575298         2.896315
 H        -1.623458        -0.871397         2.518467
 H        -4.050111         1.429514         2.907640
 H        -3.851132         2.893278         1.952764
 H        -5.160431         0.551510         0.821415
 H        -5.243013         2.080596         0.083696
 H        -2.900215        -0.547895         0.786422
