19
Iteration:  1487
 O        -0.037712         0.168538        -0.221596
 C        -1.056393         0.525421         0.695369
 C        -1.258341         1.967217         1.130096
 C        -2.415912         1.066907         1.790582
 C        -1.431607         0.124865         2.301305
 C        -3.842402         1.604009         1.995920
 C        -4.058321         1.934968         0.546395
 O        -3.287271         1.059259        -0.372589
 C        -2.433555         0.271612         0.515936
 H         0.125457        -0.762109        -0.185695
 H        -0.645947         2.473886         1.884050
 H        -1.760366         2.532448         0.372487
 H        -0.725903         0.571395         3.108107
 H        -1.875296        -0.900368         2.557976
 H        -4.529521         0.879279         2.243350
 H        -4.081973         2.429280         2.689723
 H        -5.160753         1.982335         0.407852
 H        -3.715219         2.911579         0.293433
 H        -2.944592        -0.739545         0.555256
