19
Iteration:   685charge 0 multiplicity 1
 O         0.073824        -0.026098         0.015326
 C        -0.900177         0.530543         0.739355
 C        -1.296638         1.963374         1.111478
 C        -2.428274         1.105207         1.763182
 C        -1.294604         0.195667         2.283604
 C        -3.676174         1.870996         1.859898
 C        -4.383464         1.611115         0.556101
 O        -3.371295         1.117743        -0.353276
 C        -2.562193         0.277566         0.403835
 H         0.244216         0.694105        -0.668597
 H        -0.819018         2.620381         1.876799
 H        -1.563787         2.753903         0.302854
 H        -0.746764         0.530806         3.140686
 H        -1.658282        -0.863018         2.442975
 H        -4.210810         1.722889         2.882958
 H        -3.544831         3.006627         1.854787
 H        -5.209005         0.730607         0.681132
 H        -4.908254         2.439097         0.027572
 H        -2.798155        -0.804693         0.394187
