19
Iteration:  4424charge 0 multiplicity 1
 O         0.073729         0.042926        -0.036582
 C        -1.008629         0.581915         0.725985
 C        -1.305504         2.019584         1.064621
 C        -2.424515         1.214413         1.776708
 C        -1.244462         0.163370         2.209182
 C        -3.800088         1.709795         1.948207
 C        -4.272949         1.854778         0.554419
 O        -3.451712         0.802769        -0.385479
 C        -2.446459         0.328326         0.555082
 H         0.467620         0.880083        -0.408869
 H        -0.569478         2.726690         1.411979
 H        -1.837893         2.575881         0.249131
 H        -0.576508         0.732457         2.928044
 H        -1.398967        -0.877399         2.398126
 H        -4.263740         0.841180         2.488424
 H        -4.038703         2.506671         2.606080
 H        -5.318591         1.441731         0.297782
 H        -4.250494         2.867474         0.079411
 H        -2.613677        -0.745878         0.829172
