19
Iteration:  1996charge 0 multiplicity 1
 O         0.169011        -0.040669        -0.005624
 C        -0.917701         0.559355         0.726617
 C        -1.328092         2.007100         1.066327
 C        -2.394378         1.114150         1.701480
 C        -1.286210         0.228113         2.195008
 C        -3.756260         1.661220         2.009554
 C        -4.375216         1.808035         0.619970
 O        -3.503511         1.070244        -0.346489
 C        -2.443385         0.344437         0.416041
 H        -0.265123        -0.682613        -0.606147
 H        -0.908790         2.716543         1.788639
 H        -1.606486         2.565077         0.110281
 H        -0.425170         0.614012         2.874564
 H        -1.490823        -0.871307         2.345642
 H        -4.250452         1.152669         2.853355
 H        -3.611809         2.681631         2.261056
 H        -5.427712         1.501584         0.682890
 H        -4.345718         2.861665         0.260273
 H        -2.774797        -0.724504         0.380553
