19
Iteration:  1109
 O         0.204530         0.078910         0.063410
 C        -0.943399         0.505716         0.617687
 C        -1.287133         1.989475         1.041672
 C        -2.440452         1.148278         1.707120
 C        -1.284242         0.208019         2.245498
 C        -3.796074         1.596392         2.065399
 C        -4.302875         2.059557         0.565161
 O        -3.481725         0.969499        -0.370181
 C        -2.555304         0.219373         0.405626
 H         0.170838        -0.792808        -0.380134
 H        -0.555737         2.504109         1.789851
 H        -1.699115         2.669530         0.332539
 H        -0.445941         0.405870         2.943714
 H        -1.649118        -0.837352         2.460213
 H        -4.525368         0.942877         2.506473
 H        -3.859816         2.526279         2.574998
 H        -5.364023         1.801088         0.334037
 H        -3.870694         3.053552         0.225883
 H        -2.927782        -0.809744         0.478552
