19
Iteration:  3176charge 0 multiplicity 1
 O         0.040223         0.097879        -0.127229
 C        -1.034613         0.506868         0.692400
 C        -1.274882         1.980477         1.017770
 C        -2.408105         1.180520         1.745834
 C        -1.291892         0.168965         2.221379
 C        -3.670891         1.782470         2.056918
 C        -4.411790         1.590014         0.590890
 O        -3.353131         1.086787        -0.366436
 C        -2.494160         0.292514         0.506856
 H         0.779882         0.053802         0.527758
 H        -0.401065         2.407314         1.550041
 H        -1.430495         2.437357         0.017653
 H        -0.672963         0.797750         2.901372
 H        -1.806048        -0.667581         2.562846
 H        -4.197298         1.441654         2.993849
 H        -3.773954         2.905146         2.257035
 H        -5.291951         0.887304         0.517783
 H        -4.790959         2.418912        -0.020602
 H        -2.850837        -0.700240         0.733840
