19
Iteration:  4495charge 0 multiplicity 1
 O         0.071533         0.074566        -0.032204
 C        -1.005424         0.555265         0.690205
 C        -1.387923         2.068620         0.919754
 C        -2.397787         1.131904         1.732461
 C        -1.268775         0.215557         2.257335
 C        -3.811545         1.609146         1.991775
 C        -4.288366         1.797370         0.556813
 O        -3.341195         0.925515        -0.329934
 C        -2.490632         0.246401         0.556755
 H         0.792315         0.762217        -0.048044
 H        -0.655197         2.801220         1.327638
 H        -1.815951         2.764675         0.153414
 H        -0.694704         0.668265         3.007116
 H        -1.296269        -0.925715         2.368472
 H        -4.559298         1.005382         2.528573
 H        -3.844863         2.595391         2.592651
 H        -5.319950         1.662450         0.345972
 H        -4.107483         2.853067         0.280923
 H        -2.856703        -0.734496         0.909808
