19
Iteration:  3412charge 0 multiplicity 1
 O         0.073905         0.007240        -0.041215
 C        -0.997616         0.542971         0.692724
 C        -1.172334         2.072593         1.069695
 C        -2.319085         1.260456         1.774933
 C        -1.284630         0.226863         2.206459
 C        -3.788918         1.789183         2.062433
 C        -4.434824         1.474309         0.550058
 O        -3.423907         1.094920        -0.418667
 C        -2.446737         0.322465         0.478837
 H        -0.308508        -0.321273        -0.888403
 H        -0.379903         2.413869         1.793920
 H        -1.548289         2.929195         0.429539
 H        -0.442605         0.364983         2.987881
 H        -1.613770        -0.827138         2.483945
 H        -4.444691         1.187873         2.724276
 H        -3.925021         2.845750         2.399879
 H        -5.232834         0.717621         0.764032
 H        -4.861045         2.469577         0.111218
 H        -2.784541        -0.717825         0.662196
