19
Iteration:  2582
 O         0.000428        -0.045163        -0.094240
 C        -1.023319         0.570005         0.688248
 C        -1.288862         2.053372         1.053123
 C        -2.341185         1.256141         1.709997
 C        -1.291041         0.185291         2.280463
 C        -3.642605         1.867257         2.101010
 C        -4.358537         1.473274         0.525869
 O        -3.416646         1.093388        -0.385113
 C        -2.491862         0.292094         0.461522
 H         0.701868         0.603117        -0.236382
 H        -0.372202         2.504390         1.600921
 H        -1.718197         2.701111         0.262050
 H        -0.490810         0.504088         2.835723
 H        -1.663957        -0.843324         2.352985
 H        -4.167237         1.248619         2.870800
 H        -3.644040         2.914075         2.353330
 H        -5.004904         0.629322         1.000443
 H        -5.132037         2.175220         0.177626
 H        -3.078856        -0.620272         0.737691
