19
Iteration:  1366
 O        -0.005087        -0.092977        -0.113098
 C        -0.953885         0.525410         0.717326
 C        -1.140953         2.046401         1.096352
 C        -2.427906         1.169731         1.792037
 C        -1.304580         0.164047         2.212354
 C        -3.850699         1.690501         2.022034
 C        -4.364428         1.677947         0.518227
 O        -3.348766         1.234351        -0.351499
 C        -2.485173         0.400323         0.445303
 H         0.801816        -0.270738         0.462221
 H        -0.557248         2.453765         1.926107
 H        -1.462778         2.664092         0.323512
 H        -0.537126         0.433399         2.948859
 H        -1.660471        -0.931653         2.137364
 H        -4.372558         0.876209         2.446097
 H        -4.041665         2.572768         2.631210
 H        -5.262580         0.943699         0.466903
 H        -4.565717         2.595648        -0.007389
 H        -2.826993        -0.724477         0.583857
