19
Iteration:  3633
 O         0.066861         0.001341        -0.115723
 C        -0.916777         0.619409         0.720039
 C        -1.226673         2.046445         1.074131
 C        -2.401681         1.159729         1.791443
 C        -1.196937         0.236652         2.268257
 C        -3.797576         1.697699         2.027138
 C        -4.386275         1.655509         0.515265
 O        -3.439208         1.018687        -0.388575
 C        -2.476516         0.322017         0.527319
 H        -0.402565        -0.333197        -0.921713
 H        -0.663560         2.592527         1.836733
 H        -1.710505         2.659823         0.322998
 H        -0.588271         0.803678         3.009939
 H        -1.556628        -0.651754         2.614665
 H        -4.260718         0.828038         2.513326
 H        -3.983342         2.581984         2.610406
 H        -5.451774         1.352300         0.483630
 H        -4.389321         2.687475         0.088886
 H        -2.676868        -0.733893         0.560644
