19
Iteration:  2414
 O        -0.068624         0.098708        -0.233652
 C        -0.962724         0.582268         0.689649
 C        -1.316655         2.021846         1.035845
 C        -2.403113         1.097290         1.823169
 C        -1.221273         0.213662         2.270224
 C        -3.800824         1.717440         1.995820
 C        -4.244172         1.893435         0.464042
 O        -3.422702         0.799615        -0.237908
 C        -2.456189         0.233310         0.588035
 H         0.801877         0.494965        -0.056003
 H        -0.488447         2.563998         1.555308
 H        -1.735433         2.737862         0.248593
 H        -0.561345         0.673608         2.965070
 H        -1.453766        -0.773136         2.480934
 H        -4.505355         1.139138         2.582316
 H        -3.679901         2.757341         2.454233
 H        -5.336770         1.808324         0.221268
 H        -4.115184         2.960669         0.105276
 H        -2.690645        -0.903577         0.719787
