19
Iteration:  1467charge 0 multiplicity 1
 O         0.008057         0.148663        -0.163290
 C        -1.021956         0.556148         0.777510
 C        -1.250783         1.958135         1.235761
 C        -2.406096         1.114555         1.809381
 C        -1.272722         0.049411         2.256399
 C        -3.819214         1.650687         1.994504
 C        -4.228697         1.936133         0.408460
 O        -3.374928         1.046722        -0.381244
 C        -2.518035         0.302671         0.494913
 H        -0.292300        -0.736067        -0.417269
 H        -0.500985         2.284130         1.944758
 H        -1.298348         2.671581         0.387566
 H        -0.501551         0.290517         3.060516
 H        -1.457195        -1.034756         2.208385
 H        -4.496461         0.984785         2.492764
 H        -3.863301         2.556363         2.626002
 H        -5.299099         1.872201        -0.007837
 H        -3.861849         2.964312         0.201280
 H        -2.828184        -0.827179         0.626459
