19
Iteration:  1861
 O         0.273942         0.027444        -0.030232
 C        -0.938065         0.444896         0.765488
 C        -1.246985         1.901114         1.023271
 C        -2.379541         1.225052         1.682824
 C        -1.442080         0.178084         2.224197
 C        -3.794180         1.675079         2.017486
 C        -4.407023         1.735711         0.691033
 O        -3.444619         1.237245        -0.361243
 C        -2.470465         0.318339         0.381950
 H        -0.114576        -0.499828        -0.800926
 H        -0.702503         2.521865         1.813954
 H        -1.354006         2.446052         0.103155
 H        -0.742688         0.399125         2.956953
 H        -1.942016        -0.757168         2.463836
 H        -4.194862         0.879320         2.662123
 H        -3.924170         2.646397         2.608978
 H        -5.436059         1.378446         0.604665
 H        -4.364382         2.730442         0.297926
 H        -2.821765        -0.752791         0.254552
