19
Iteration:  4636
 O         0.090420         0.024971         0.051503
 C        -0.941560         0.566401         0.720489
 C        -1.236012         1.995114         1.042935
 C        -2.343444         1.278459         1.672275
 C        -1.298054         0.144109         2.187938
 C        -3.778993         1.792491         2.045255
 C        -4.420728         1.504011         0.582467
 O        -3.382348         1.054393        -0.376244
 C        -2.529774         0.377954         0.420728
 H         0.699932         0.757208        -0.251580
 H        -0.378312         2.556896         1.540127
 H        -1.592752         2.690269         0.162908
 H        -0.716177         0.433043         3.028193
 H        -1.715989        -0.931087         2.257941
 H        -4.330410         1.179899         2.771072
 H        -4.080368         2.820574         2.554672
 H        -5.227522         0.692309         0.729715
 H        -4.989944         2.287048         0.027688
 H        -2.887224        -0.700621         0.445553
