19
Iteration:  2914
 O         0.027479        -0.070373         0.013773
 C        -0.944284         0.559539         0.655530
 C        -1.253492         2.063971         0.887956
 C        -2.314231         1.232778         1.686019
 C        -1.247403         0.241683         2.190192
 C        -3.791927         1.598600         2.028362
 C        -4.420041         1.757990         0.596946
 O        -3.399660         1.052445        -0.248653
 C        -2.540507         0.278217         0.532194
 H         0.461667         0.529490        -0.607854
 H        -0.475108         2.647843         1.466911
 H        -1.551146         2.711917         0.068409
 H        -0.664983         0.684705         3.030420
 H        -1.592852        -0.750180         2.316348
 H        -4.184776         0.729664         2.536327
 H        -3.966727         2.546669         2.582357
 H        -5.365592         1.303550         0.412641
 H        -4.358316         2.824474         0.403698
 H        -2.684122        -0.782864         0.761332
