19
Iteration:  3245
 O        -0.064685        -0.133934        -0.097775
 C        -0.964204         0.581894         0.644623
 C        -1.307676         2.084489         1.019161
 C        -2.389756         1.261274         1.752946
 C        -1.263075         0.301572         2.254238
 C        -3.768872         1.596981         2.050559
 C        -4.331545         1.665408         0.522009
 O        -3.346801         1.099336        -0.343931
 C        -2.471616         0.343724         0.546272
 H         0.858235         0.206645         0.023948
 H        -0.474890         2.617137         1.550804
 H        -1.688115         2.634664         0.151420
 H        -0.613557         0.884536         2.838638
 H        -1.317649        -0.745997         2.522849
 H        -4.278824         0.750370         2.517841
 H        -3.780331         2.372229         2.797638
 H        -5.128931         0.934429         0.505443
 H        -4.737861         2.494495         0.067723
 H        -2.776561        -0.660801         0.743842
