19
Iteration:  3044charge 0 multiplicity 1
 O         0.025067        -0.036097        -0.075254
 C        -0.976107         0.591240         0.676538
 C        -1.377139         2.101240         1.013036
 C        -2.364118         1.151688         1.743022
 C        -1.203019         0.206566         2.169250
 C        -3.718574         1.642501         2.043363
 C        -4.199574         1.775184         0.576477
 O        -3.501386         0.961359        -0.368869
 C        -2.551500         0.338942         0.507423
 H         0.801750         0.133077         0.521946
 H        -0.727651         2.685266         1.735714
 H        -1.859745         2.712634         0.241778
 H        -0.651446         0.669074         3.094656
 H        -1.398113        -0.809492         2.475897
 H        -4.362150         0.828841         2.512917
 H        -3.942455         2.610284         2.614245
 H        -5.226165         1.585090         0.469301
 H        -4.070596         2.801458         0.228386
 H        -2.744392        -0.757945         0.586937
