19
Iteration:  4112charge 0 multiplicity 1
 O         0.111954        -0.076879        -0.013974
 C        -0.968176         0.580709         0.685578
 C        -1.204195         2.027504         1.128238
 C        -2.404077         1.185203         1.720590
 C        -1.196613         0.256461         2.214062
 C        -3.815005         1.622329         1.979801
 C        -4.419476         1.689636         0.523431
 O        -3.432686         1.037791        -0.368251
 C        -2.520047         0.449714         0.508721
 H        -0.184649         0.083480        -0.911130
 H        -0.400668         2.282312         1.853211
 H        -1.399068         2.819160         0.379346
 H        -0.613507         0.943297         2.902469
 H        -1.535867        -0.787792         2.521807
 H        -4.337680         0.830797         2.586688
 H        -3.925675         2.602329         2.528889
 H        -5.277010         0.979102         0.494305
 H        -4.391901         2.687077         0.083697
 H        -2.945471        -0.597357         0.686876
