19
Iteration:  1260charge 0 multiplicity 1
 O         0.185984        -0.068730         0.089901
 C        -0.910783         0.525362         0.730986
 C        -1.231124         1.999264         1.043395
 C        -2.366164         1.192245         1.662199
 C        -1.375562         0.081534         2.190287
 C        -3.745795         1.651906         2.005032
 C        -4.409727         1.774599         0.624102
 O        -3.455951         1.188091        -0.405708
 C        -2.545140         0.349569         0.409936
 H         0.269197         0.299316        -0.831412
 H        -0.543678         2.553677         1.780176
 H        -1.559031         2.619171         0.214047
 H        -0.733348         0.381525         3.017552
 H        -1.901359        -0.845524         2.414811
 H        -4.125763         1.019822         2.886402
 H        -3.741279         2.697278         2.441859
 H        -5.334916         1.287981         0.392387
 H        -4.550489         2.811234         0.336750
 H        -2.920940        -0.672149         0.545190
