19
Iteration:  4939charge 0 multiplicity 1
 O         0.289009         0.051635         0.047290
 C        -0.965347         0.514369         0.704180
 C        -1.191132         1.981099         1.118525
 C        -2.471347         1.224988         1.624258
 C        -1.339739         0.205167         2.142798
 C        -3.782823         1.725029         2.050548
 C        -4.447200         1.651264         0.566649
 O        -3.560516         0.989199        -0.354421
 C        -2.466034         0.313092         0.380549
 H         0.535276         0.905202        -0.296851
 H        -0.583948         2.236993         1.991448
 H        -1.400569         2.674161         0.217189
 H        -0.514912         0.616924         2.839392
 H        -1.534649        -0.815882         2.509535
 H        -4.287062         1.247258         2.923471
 H        -3.652299         2.779850         2.420313
 H        -5.458701         1.270415         0.589284
 H        -4.502396         2.745854         0.187336
 H        -2.772605        -0.744924         0.613498
