19
Iteration:  4068
 O         0.060088         0.004443        -0.080367
 C        -0.952686         0.484504         0.676128
 C        -1.284237         2.040311         0.987326
 C        -2.429138         1.169098         1.805298
 C        -1.333811         0.224252         2.246385
 C        -3.724405         1.759705         2.028567
 C        -4.383143         1.588259         0.502284
 O        -3.234675         1.146290        -0.348681
 C        -2.566955         0.293629         0.587462
 H         0.260983         0.356439        -0.933647
 H        -0.620085         2.487175         1.731136
 H        -1.735267         2.869755         0.364610
 H        -0.631218         0.703596         3.011826
 H        -1.568204        -0.847459         2.172350
 H        -4.435517         1.165794         2.665363
 H        -3.794054         2.755994         2.503532
 H        -5.015148         0.614071         0.585932
 H        -4.976875         2.449653         0.135411
 H        -3.066805        -0.725255         0.762653
