19
Iteration:  2085charge 0 multiplicity 1
 O        -0.061555         0.175229        -0.197244
 C        -1.022988         0.547379         0.781323
 C        -1.308076         2.081238         1.121418
 C        -2.377265         1.182455         1.772876
 C        -1.217976         0.172521         2.262350
 C        -3.752198         1.734962         2.053661
 C        -4.162721         1.790089         0.427834
 O        -3.454642         0.875375        -0.322534
 C        -2.537049         0.159095         0.467885
 H         0.230182        -0.744177         0.012856
 H        -0.633637         2.720674         1.803606
 H        -1.656304         2.809740         0.368439
 H        -0.407100         0.666627         3.032331
 H        -1.491108        -0.917524         2.465227
 H        -4.320388         1.160874         2.788512
 H        -3.731817         2.764350         2.262022
 H        -5.209392         1.756916         0.222636
 H        -3.766349         2.828112         0.154078
 H        -2.702148        -0.913145         0.687436
