19
Iteration:  2358charge 0 multiplicity 1
 O        -0.012591        -0.077670        -0.156607
 C        -0.890187         0.577806         0.729265
 C        -1.338624         2.093370         0.969914
 C        -2.375135         1.179288         1.768578
 C        -1.287365         0.241993         2.263792
 C        -3.778548         1.750935         1.995325
 C        -4.307847         1.653469         0.581243
 O        -3.361200         1.065415        -0.273367
 C        -2.514192         0.250176         0.491953
 H         0.775526         0.481929        -0.310505
 H        -0.619582         2.583455         1.670734
 H        -1.722287         2.693164         0.116669
 H        -0.544782         0.626357         2.966238
 H        -1.493480        -0.755590         2.413828
 H        -4.296739         0.993429         2.605068
 H        -3.995122         2.763777         2.455633
 H        -5.127998         0.910403         0.779860
 H        -4.581180         2.689525         0.214759
 H        -2.988914        -0.801147         0.499320
