19
Iteration:   215
 O         0.093268         0.079520        -0.027817
 C        -0.974747         0.610627         0.656749
 C        -1.293686         2.046445         1.055659
 C        -2.417192         1.207986         1.721258
 C        -1.454616         0.215002         2.258222
 C        -3.726280         1.669374         2.023052
 C        -4.104056         1.859920         0.520389
 O        -3.505228         0.823515        -0.364884
 C        -2.470954         0.294160         0.485036
 H         0.074584        -0.850172        -0.308874
 H        -0.607987         2.649603         1.739325
 H        -1.649881         2.580140         0.138610
 H        -0.719684         0.420487         3.129155
 H        -1.863003        -0.803826         2.571801
 H        -4.388608         0.966051         2.607715
 H        -3.974393         2.599134         2.488625
 H        -5.154077         2.032236         0.330225
 H        -3.572061         2.837684         0.416521
 H        -2.733756        -0.765977         0.656649
