19
Iteration:  4608
 O         0.191008        -0.038463         0.027776
 C        -0.939824         0.534958         0.688578
 C        -1.199198         2.050203         1.043796
 C        -2.380814         1.234567         1.653413
 C        -1.268785         0.210717         2.207948
 C        -3.822983         1.678548         2.003454
 C        -4.575747         1.531265         0.662985
 O        -3.394147         1.100109        -0.402709
 C        -2.546847         0.375936         0.419190
 H         0.940040         0.579089         0.239231
 H        -0.542356         2.591677         1.670869
 H        -1.451475         2.687091         0.210583
 H        -0.461987         0.624066         2.935064
 H        -1.560613        -0.759844         2.535220
 H        -4.377094         1.447218         2.913289
 H        -3.837836         2.713471         2.161147
 H        -5.366007         0.830833         0.553980
 H        -4.873629         2.502924         0.277663
 H        -2.885159        -0.645148         0.479253
