19
Iteration:  3775
 O         0.050941         0.011568        -0.168987
 C        -1.056523         0.503935         0.612406
 C        -1.309858         1.939626         1.048633
 C        -2.398787         1.192157         1.839022
 C        -1.275105         0.254233         2.325198
 C        -3.783628         1.703762         2.004701
 C        -4.304484         1.606940         0.503704
 O        -3.273966         1.121349        -0.319682
 C        -2.545895         0.319848         0.521511
 H         0.610267         0.789526        -0.344395
 H        -0.482990         2.416776         1.539168
 H        -1.783074         2.567923         0.259630
 H        -0.467815         0.820982         2.886017
 H        -1.462640        -0.645817         2.795256
 H        -4.336357         1.079439         2.744624
 H        -3.708273         2.717006         2.359049
 H        -5.187003         0.960743         0.568112
 H        -4.844057         2.483775         0.104579
 H        -3.152508        -0.610013         0.774620
