19
Iteration:   610charge 0 multiplicity 1
 O         0.032963        -0.022721        -0.075684
 C        -0.955649         0.521111         0.706080
 C        -1.278710         2.022339         1.008772
 C        -2.438364         1.144785         1.793943
 C        -1.265509         0.349846         2.372594
 C        -3.845205         1.607641         1.983500
 C        -4.244382         1.789092         0.500550
 O        -3.407714         1.056670        -0.412879
 C        -2.479343         0.301837         0.453790
 H         0.151807        -0.853201         0.374968
 H        -0.521884         2.466550         1.649191
 H        -1.686644         2.760489         0.235402
 H        -0.633957         0.912396         3.000452
 H        -1.407574        -0.742395         2.552986
 H        -4.272168         0.655706         2.357659
 H        -4.110603         2.488294         2.617319
 H        -5.313062         1.829930         0.364613
 H        -3.864634         2.833234         0.386003
 H        -2.738712        -0.775349         0.574737
