19
Iteration:  1617charge 0 multiplicity 1
 O        -0.028791         0.046647        -0.144281
 C        -0.991032         0.513121         0.746901
 C        -1.296910         2.066581         1.144443
 C        -2.387683         1.076726         1.826074
 C        -1.367710         0.024294         2.242442
 C        -3.809132         1.719691         2.032865
 C        -4.341819         1.713251         0.507452
 O        -3.192478         1.287356        -0.376598
 C        -2.460772         0.320629         0.443896
 H         0.086661        -0.910434        -0.235639
 H        -0.609854         2.723067         1.692148
 H        -1.618833         2.548155         0.186438
 H        -0.489833         0.183304         2.907659
 H        -1.861040        -0.910109         2.309964
 H        -4.363938         1.077022         2.780794
 H        -3.529642         2.734066         2.419914
 H        -5.107568         0.968258         0.347801
 H        -4.636573         2.703745         0.214618
 H        -2.940748        -0.701380         0.514952
