19
Iteration:  2472
 O         0.125158         0.000573        -0.097801
 C        -0.987254         0.477427         0.695158
 C        -1.260683         1.960955         0.812210
 C        -2.446630         1.191578         1.741772
 C        -1.098419         0.297923         2.218699
 C        -3.854588         1.581336         2.081421
 C        -4.322402         1.793985         0.627125
 O        -3.503862         1.090201        -0.313695
 C        -2.563391         0.329128         0.545390
 H         0.970537         0.053332         0.403922
 H        -0.557254         2.562469         1.486672
 H        -1.639713         2.505913        -0.065395
 H        -0.527980         0.835777         2.947702
 H        -1.427765        -0.664254         2.742520
 H        -4.391651         0.700103         2.502960
 H        -4.169042         2.486644         2.538767
 H        -5.370531         1.422464         0.521062
 H        -4.096219         2.809031         0.279422
 H        -2.812818        -0.794760         0.693651
