19
Iteration:  1304charge 0 multiplicity 1
 O         0.022631         0.062472        -0.154372
 C        -1.000600         0.430419         0.726368
 C        -1.254616         1.942653         1.145157
 C        -2.367292         1.101858         1.818491
 C        -1.257911         0.053223         2.251612
 C        -3.762879         1.811699         1.913689
 C        -4.436145         1.694245         0.478358
 O        -3.270358         1.179068        -0.340317
 C        -2.570147         0.352706         0.522171
 H         0.850543         0.290976         0.344265
 H        -0.589537         2.534996         1.852162
 H        -1.685897         2.522194         0.317417
 H        -0.411404         0.405765         2.875932
 H        -1.493030        -0.992801         2.385172
 H        -4.594602         1.526351         2.695578
 H        -3.685024         2.894618         2.230743
 H        -5.364915         1.139790         0.394078
 H        -4.663272         2.710838         0.029284
 H        -3.079412        -0.583456         0.649610
