19
Iteration:   921charge 0 multiplicity 1
 O         0.044057        -0.123691         0.016758
 C        -0.943350         0.537989         0.708876
 C        -1.313132         2.096447         1.082279
 C        -2.350557         1.208308         1.770955
 C        -1.272765         0.231833         2.258416
 C        -3.786670         1.627620         2.014806
 C        -4.396847         1.715553         0.493426
 O        -3.264563         1.123723        -0.395136
 C        -2.538559         0.343862         0.455986
 H        -0.167035        -0.068091        -0.895163
 H        -0.651093         2.553230         1.808533
 H        -1.551622         2.842325         0.231804
 H        -0.497657         0.642790         2.937047
 H        -1.377529        -0.872412         2.520874
 H        -4.435747         0.950051         2.554992
 H        -3.991437         2.548498         2.496666
 H        -5.347356         1.123563         0.438128
 H        -4.592363         2.755216         0.098801
 H        -3.105313        -0.658582         0.583553
