19
Iteration:  1421charge 0 multiplicity 1
 O         0.125777         0.034700         0.077335
 C        -0.923626         0.497906         0.700478
 C        -1.247739         1.970907         1.018380
 C        -2.429106         1.066123         1.684674
 C        -1.424934         0.080537         2.166047
 C        -3.750703         1.680754         2.097541
 C        -4.326168         1.845321         0.605196
 O        -3.356091         1.159466        -0.411595
 C        -2.546020         0.304492         0.405402
 H         0.322397         0.518390        -0.780214
 H        -0.610561         2.518082         1.751479
 H        -1.653888         2.660766         0.316879
 H        -0.811444         0.352256         3.073789
 H        -1.847651        -0.959736         2.399199
 H        -4.281126         1.206653         2.836730
 H        -3.652277         2.685178         2.505030
 H        -5.376014         1.454601         0.383881
 H        -4.314485         2.897531         0.342451
 H        -2.783319        -0.838320         0.521047
