19
Iteration:  1636
 O        -0.047128        -0.014016        -0.170056
 C        -0.940694         0.598367         0.739445
 C        -1.236935         1.977751         1.143057
 C        -2.463454         1.086384         1.772777
 C        -1.336611         0.094955         2.223188
 C        -3.789171         1.702072         2.050153
 C        -4.304547         1.638158         0.519337
 O        -3.200115         1.263222        -0.353308
 C        -2.486127         0.446422         0.467040
 H        -0.298797        -0.932906        -0.127607
 H        -0.601961         2.359001         1.980148
 H        -1.468738         2.792002         0.519404
 H        -0.957135         0.454846         3.133639
 H        -1.516626        -0.971599         2.210923
 H        -4.557201         1.058620         2.604245
 H        -3.795361         2.717341         2.431268
 H        -5.152832         0.921226         0.537209
 H        -4.582404         2.656562         0.057901
 H        -2.890072        -0.601943         0.177396
