19
Iteration:   143charge 0 multiplicity 1
 O         0.044310        -0.100152        -0.098172
 C        -0.945292         0.603039         0.711789
 C        -1.269839         1.991706         0.999321
 C        -2.394302         1.206706         1.695449
 C        -1.422999         0.259147         2.336825
 C        -3.760401         1.725674         1.983579
 C        -4.330565         1.684305         0.575562
 O        -3.312025         1.057587        -0.357388
 C        -2.486421         0.302147         0.525365
 H         0.755180         0.489753        -0.340809
 H        -0.670585         2.487470         1.722967
 H        -1.668650         2.598863         0.219514
 H        -0.994044         0.624782         3.217100
 H        -1.670330        -0.761682         2.330921
 H        -4.188688         1.108039         2.734863
 H        -3.796850         2.749500         2.394856
 H        -5.246991         1.086610         0.456792
 H        -4.531291         2.689271         0.206237
 H        -2.860955        -0.712281         0.543812
