19
Iteration:  3688
 O         0.115982        -0.071942         0.011724
 C        -0.976569         0.530864         0.736630
 C        -1.226232         2.055293         0.921064
 C        -2.358436         1.180556         1.712367
 C        -1.322473         0.264585         2.279104
 C        -3.718980         1.629671         1.994580
 C        -4.478693         1.572863         0.598862
 O        -3.414862         1.183942        -0.311326
 C        -2.473681         0.354976         0.411193
 H         0.377415         0.555582        -0.685622
 H        -0.586739         2.711381         1.495524
 H        -1.610657         2.672101         0.083005
 H        -0.574924         0.500820         3.064748
 H        -1.688012        -0.680910         2.432422
 H        -4.140561         0.887492         2.698464
 H        -3.730144         2.576482         2.510664
 H        -5.397528         0.911580         0.619757
 H        -4.806035         2.604196         0.242107
 H        -2.873766        -0.640306         0.624079
