19
Iteration:  3574charge 0 multiplicity 1
 O         0.133886         0.133818        -0.063195
 C        -0.971469         0.521580         0.709258
 C        -1.458992         2.003183         1.070071
 C        -2.435864         1.056844         1.745555
 C        -1.029547         0.215210         2.170003
 C        -3.865339         1.731765         1.963476
 C        -4.229350         1.942557         0.527900
 O        -3.499666         0.866394        -0.325075
 C        -2.510836         0.150512         0.605639
 H        -0.198283         0.248649        -0.964636
 H        -0.779980         2.667370         1.686003
 H        -1.814089         2.714904         0.284232
 H        -0.512754         0.756650         2.894151
 H        -1.263879        -0.708363         2.772000
 H        -4.563730         1.204123         2.653742
 H        -3.676516         2.748086         2.430422
 H        -5.324757         1.921284         0.225775
 H        -3.634853         2.855598         0.130524
 H        -2.839695        -0.926793         0.734753
