19
Iteration:   318
 O         0.194973        -0.067599        -0.028563
 C        -0.907613         0.570593         0.683748
 C        -1.116749         1.936857         0.990500
 C        -2.363721         1.277078         1.831530
 C        -1.324664         0.238628         2.249494
 C        -3.904699         1.620394         2.032490
 C        -4.456603         1.755373         0.385750
 O        -3.415039         1.082592        -0.362323
 C        -2.538812         0.399213         0.594036
 H        -0.069570        -0.844232        -0.488108
 H        -0.493965         2.377481         1.693504
 H        -1.465627         2.706646         0.310438
 H        -0.672970         0.767189         2.839314
 H        -1.569329        -0.714875         2.570023
 H        -4.435716         0.793506         2.435048
 H        -3.877605         2.496699         2.705179
 H        -5.463886         1.281974         0.219796
 H        -4.533100         2.863817         0.164069
 H        -3.011525        -0.584343         0.729437
