19
Iteration:  3458charge 0 multiplicity 1
 O         0.102955         0.023948        -0.097153
 C        -1.049115         0.592933         0.641918
 C        -1.254840         2.028377         1.127778
 C        -2.351418         1.214897         1.811568
 C        -1.339475         0.138013         2.278952
 C        -3.734997         1.941795         1.942137
 C        -4.398732         1.377661         0.672179
 O        -3.332876         1.086826        -0.369754
 C        -2.516989         0.392527         0.415347
 H        -0.100420         0.031449        -1.061101
 H        -0.389681         2.379327         1.730620
 H        -1.476733         2.703569         0.317528
 H        -0.630832         0.330668         3.209211
 H        -1.843384        -0.842968         2.473151
 H        -4.144568         1.762005         2.926380
 H        -3.678338         3.027031         1.811803
 H        -4.790392         0.355395         0.973101
 H        -5.219910         1.904383         0.144334
 H        -2.772880        -0.693548         0.402690
