19
Iteration:  4457charge 0 multiplicity 1
 O         0.203017         0.056007         0.010284
 C        -0.966927         0.567546         0.653585
 C        -1.331824         1.996301         0.947223
 C        -2.439125         1.098680         1.670995
 C        -1.248943         0.308243         2.267065
 C        -3.855842         1.595999         1.990336
 C        -4.277766         1.930032         0.594971
 O        -3.520777         0.899025        -0.335459
 C        -2.530727         0.197179         0.523471
 H         0.770977         0.833823        -0.049037
 H        -0.611672         2.459091         1.627723
 H        -1.791460         2.611474         0.143999
 H        -0.671105         0.982511         3.008546
 H        -1.230748        -0.713503         2.591759
 H        -4.285455         0.748207         2.568651
 H        -3.715219         2.489486         2.540579
 H        -5.388405         1.900273         0.211539
 H        -3.871447         2.899794         0.233533
 H        -2.791692        -0.874360         0.687107
