19
Iteration:  3552charge 0 multiplicity 1
 O         0.135159        -0.027517        -0.031739
 C        -1.017535         0.636765         0.661641
 C        -1.424215         2.035747         0.949234
 C        -2.424168         1.139320         1.817567
 C        -1.200098         0.317600         2.189618
 C        -3.832951         1.576181         2.079487
 C        -4.124771         1.896841         0.499241
 O        -3.484721         0.884673        -0.254341
 C        -2.514773         0.267090         0.505204
 H         0.224988         0.362048        -0.932977
 H        -0.724435         2.700195         1.532066
 H        -1.869286         2.702391         0.174656
 H        -0.525823         0.743646         2.873733
 H        -1.280701        -0.761765         2.506724
 H        -4.571886         0.819719         2.432186
 H        -3.939595         2.491493         2.727161
 H        -5.210309         1.688015         0.441571
 H        -3.746498         2.883426         0.022636
 H        -2.780158        -0.830798         0.518495
