19
Iteration:   867charge 0 multiplicity 1
 O         0.135290         0.084918        -0.040099
 C        -0.960872         0.427299         0.706136
 C        -1.367863         1.973685         1.037737
 C        -2.421036         1.198786         1.797164
 C        -1.198216         0.140512         2.157115
 C        -3.859185         1.716938         1.895645
 C        -4.182607         1.911946         0.413801
 O        -3.487545         0.949682        -0.310677
 C        -2.577787         0.227401         0.706168
 H         0.701734         0.825410         0.088841
 H        -0.663782         2.457383         1.717780
 H        -1.656894         2.745428         0.213784
 H        -0.360346         0.457834         2.844478
 H        -1.392243        -1.011648         2.334695
 H        -4.597105         1.036891         2.337571
 H        -3.877544         2.683595         2.333541
 H        -5.284804         1.879775         0.336757
 H        -3.965295         3.014294         0.197379
 H        -2.938473        -0.854396         0.778076
