19
Iteration:  1781
 O        -0.159990         0.098212        -0.173781
 C        -0.981535         0.567799         0.726655
 C        -1.291412         1.942480         1.146699
 C        -2.384720         1.108881         1.833523
 C        -1.345158         0.168628         2.348137
 C        -3.809678         1.559466         1.952001
 C        -4.071088         1.928642         0.487588
 O        -3.397323         1.063885        -0.373104
 C        -2.468909         0.223605         0.446619
 H         0.779912         0.447435        -0.079510
 H        -0.557312         2.277961         1.852392
 H        -1.577172         2.760962         0.437788
 H        -0.596449         0.451097         3.105741
 H        -1.624942        -0.803500         2.463937
 H        -4.400463         0.723646         2.403838
 H        -3.773274         2.509435         2.554149
 H        -5.154390         1.894348         0.163624
 H        -3.678026         2.940238         0.268680
 H        -2.760408        -0.834215         0.414790
