19
Iteration:  1798
 O         0.035438         0.044052        -0.286083
 C        -0.995790         0.517629         0.715728
 C        -1.326223         2.020871         1.221879
 C        -2.488915         1.033400         1.808929
 C        -1.255093         0.084740         2.208321
 C        -3.891890         1.694777         2.028479
 C        -4.161261         1.968944         0.482185
 O        -3.314663         0.985209        -0.354765
 C        -2.540108         0.349125         0.534786
 H         0.828485        -0.012987         0.311347
 H        -0.719170         2.625694         1.949213
 H        -1.671521         2.667926         0.411344
 H        -0.556040         0.529360         2.969474
 H        -1.452511        -1.036945         2.572613
 H        -4.674852         1.036613         2.414094
 H        -3.962637         2.584021         2.630250
 H        -5.208346         1.801465         0.280760
 H        -3.834693         2.977865         0.141335
 H        -2.849798        -0.722605         0.692444
