19
Iteration:  3425charge 0 multiplicity 1
 O         0.057288         0.074999        -0.097256
 C        -0.938637         0.539897         0.742786
 C        -1.050754         1.993382         1.115571
 C        -2.393432         1.282882         1.731664
 C        -1.246708         0.147035         2.276194
 C        -3.812083         1.808606         1.936403
 C        -4.505708         1.458931         0.616654
 O        -3.394885         1.046091        -0.359968
 C        -2.542219         0.441862         0.463809
 H        -0.314653        -0.131077        -0.956942
 H        -0.257557         2.329571         1.827795
 H        -1.058004         2.593123         0.205188
 H        -0.621648         0.733315         3.079014
 H        -1.738881        -0.834243         2.414007
 H        -4.225552         1.234914         2.793360
 H        -3.794192         2.877233         2.195025
 H        -5.119446         0.555497         0.613905
 H        -5.181366         2.240407         0.133955
 H        -2.885877        -0.642995         0.549709
