19
Iteration:  1000
 O         0.102400         0.156270        -0.078243
 C        -0.987180         0.521690         0.728261
 C        -1.219848         1.945321         1.135437
 C        -2.445705         1.103622         1.781885
 C        -1.394044         0.090413         2.232508
 C        -3.673535         1.886702         1.957094
 C        -4.470029         1.604878         0.482314
 O        -3.311466         1.143032        -0.355392
 C        -2.503771         0.315640         0.505516
 H         0.258765        -0.744184        -0.290863
 H        -0.357936         2.346887         1.780033
 H        -1.461188         2.498706         0.263758
 H        -0.582904         0.372140         2.940415
 H        -1.896823        -0.951137         2.406640
 H        -4.377655         1.531703         2.704859
 H        -3.423052         2.915804         2.136645
 H        -5.205378         0.804240         0.696774
 H        -4.863969         2.532129         0.019586
 H        -2.889565        -0.744579         0.538486
