19
Iteration:  3301charge 0 multiplicity 1
 O         0.068111         0.127513        -0.178877
 C        -0.984054         0.576731         0.684873
 C        -1.371691         2.005054         1.178014
 C        -2.421701         1.112395         1.770530
 C        -1.135465         0.223940         2.213956
 C        -3.719848         1.810815         1.954960
 C        -4.255801         1.889634         0.484424
 O        -3.545603         0.784604        -0.307603
 C        -2.583725         0.139258         0.582026
 H         0.861242         0.693645        -0.122342
 H        -0.770401         2.451862         2.004872
 H        -1.450337         2.721621         0.322542
 H        -0.509376         0.628352         2.957497
 H        -1.464679        -0.810947         2.505638
 H        -4.453626         1.292164         2.579199
 H        -3.469658         2.809035         2.338590
 H        -5.298730         1.672532         0.397506
 H        -3.896092         2.721084        -0.074870
 H        -2.730542        -0.922168         0.581139
