19
Iteration:  2084
 O        -0.070602         0.168570        -0.195904
 C        -1.015292         0.545151         0.767253
 C        -1.318705         2.079646         1.127129
 C        -2.376160         1.180909         1.759112
 C        -1.225507         0.184842         2.272177
 C        -3.752245         1.734966         2.057637
 C        -4.155160         1.786415         0.426209
 O        -3.451314         0.879128        -0.315146
 C        -2.532773         0.155383         0.456703
 H         0.271466        -0.740908         0.054148
 H        -0.600143         2.691696         1.823322
 H        -1.692760         2.865720         0.383566
 H        -0.432713         0.671241         3.023235
 H        -1.472413        -0.885985         2.473846
 H        -4.308441         1.138804         2.835487
 H        -3.715982         2.761347         2.248662
 H        -5.229462         1.747022         0.231545
 H        -3.740884         2.825581         0.187809
 H        -2.704907        -0.890857         0.648709
