19
Iteration:  1346
 O        -0.125963         0.007782        -0.187036
 C        -1.017845         0.534738         0.745117
 C        -1.246433         2.066755         1.210875
 C        -2.378690         1.236836         1.799549
 C        -1.364169         0.096671         2.283819
 C        -3.714518         1.621607         1.963948
 C        -4.357634         1.651891         0.524481
 O        -3.211644         1.130345        -0.457370
 C        -2.471310         0.433158         0.449410
 H         0.511394        -0.521984         0.272204
 H        -0.418592         2.414401         1.862648
 H        -1.503901         2.623454         0.359792
 H        -0.692884         0.540404         3.046772
 H        -1.893825        -0.864200         2.514024
 H        -4.133781         1.141889         2.874153
 H        -3.590238         2.688007         2.336551
 H        -5.279834         0.933599         0.507520
 H        -4.610162         2.684727         0.247804
 H        -2.857607        -0.586335         0.683241
