19
Iteration:  4447charge 0 multiplicity 1
 O         0.155838         0.062861        -0.006838
 C        -0.927874         0.622522         0.675161
 C        -1.339427         2.034306         0.954184
 C        -2.428796         1.106999         1.717098
 C        -1.302343         0.323792         2.266905
 C        -3.752929         1.572221         1.993648
 C        -4.263897         1.850217         0.515940
 O        -3.543525         0.902494        -0.304308
 C        -2.535513         0.169834         0.518328
 H         0.844819         0.642862        -0.297979
 H        -0.686398         2.602513         1.664592
 H        -1.456075         2.733797         0.151471
 H        -0.616372         0.650945         3.108575
 H        -1.743744        -0.596216         2.437371
 H        -4.303040         0.928711         2.730963
 H        -3.827420         2.526031         2.446517
 H        -5.326909         1.913216         0.078520
 H        -3.817697         2.867061         0.501294
 H        -2.739529        -0.928079         0.596451
