19
Iteration:  4442charge 0 multiplicity 1
 O         0.116704         0.064219        -0.013149
 C        -0.907813         0.586962         0.704535
 C        -1.341926         2.087876         0.965216
 C        -2.392723         1.141215         1.730763
 C        -1.319116         0.300039         2.269557
 C        -3.758251         1.592749         2.037432
 C        -4.213765         1.794639         0.467538
 O        -3.539183         0.881327        -0.289541
 C        -2.528318         0.217550         0.472309
 H         0.809736         0.674090        -0.387233
 H        -0.760993         2.577231         1.742125
 H        -1.488159         2.724243        -0.003994
 H        -0.589472         0.575929         3.020509
 H        -1.884073        -0.729527         2.404538
 H        -4.463915         0.972992         2.606031
 H        -3.875251         2.580000         2.588629
 H        -5.334007         1.792249         0.291437
 H        -3.829094         2.843500         0.396423
 H        -2.763792        -0.845669         0.552558
