19
Iteration:  1741charge 0 multiplicity 1
 O         0.115598         0.000684        -0.067154
 C        -0.998177         0.494897         0.674782
 C        -1.300960         1.915702         1.073037
 C        -2.430484         1.120839         1.782638
 C        -1.218479         0.116950         2.235616
 C        -3.933558         1.611886         2.028410
 C        -4.201183         1.926649         0.468535
 O        -3.381249         1.141472        -0.273633
 C        -2.533798         0.321892         0.480448
 H         0.377623         0.662590        -0.708266
 H        -0.555129         2.361049         1.808993
 H        -1.677982         2.594055         0.310778
 H        -0.487312         0.361648         3.015631
 H        -1.692245        -0.939486         2.234470
 H        -4.539499         0.827517         2.443617
 H        -4.145817         2.606936         2.502986
 H        -5.228075         1.874122         0.114859
 H        -3.904826         2.968232         0.407384
 H        -2.971434        -0.743729         0.539973
