19
Iteration:  4482
 O         0.122595         0.086333         0.024141
 C        -0.978335         0.575471         0.715289
 C        -1.445474         1.976139         0.880782
 C        -2.387986         1.168939         1.829255
 C        -1.150323         0.234906         2.235402
 C        -3.814990         1.603972         2.011438
 C        -4.238723         1.827947         0.476974
 O        -3.472239         0.995007        -0.345149
 C        -2.561149         0.220935         0.553580
 H         0.783088         0.768358         0.031447
 H        -0.750659         2.606029         1.532413
 H        -1.896736         2.260565        -0.019419
 H        -0.328068         0.512878         2.889198
 H        -1.533591        -0.751578         2.441060
 H        -4.193475         0.721382         2.555112
 H        -3.938857         2.613920         2.485135
 H        -5.273832         1.605408         0.259331
 H        -4.012660         2.870662         0.187830
 H        -2.819224        -0.854885         0.479895
