19
Iteration:  3074
 O         0.020193        -0.140020        -0.088290
 C        -0.997191         0.549526         0.683093
 C        -1.289075         2.066234         0.873959
 C        -2.404507         1.178246         1.744372
 C        -1.138223         0.316654         2.241596
 C        -3.908026         1.527331         2.083033
 C        -4.335386         1.786147         0.657637
 O        -3.337428         1.112303        -0.346367
 C        -2.515625         0.321985         0.531059
 H         0.822230         0.358513         0.083773
 H        -0.733047         2.620812         1.604278
 H        -1.650485         2.672818         0.077929
 H        -0.535683         0.848991         2.947663
 H        -1.450364        -0.595754         2.623055
 H        -4.378083         0.608192         2.351546
 H        -4.189539         2.368782         2.625485
 H        -5.272675         1.426376         0.236853
 H        -4.134634         2.816437         0.334867
 H        -2.824448        -0.683524         0.425600
