19
Iteration:  1351charge 0 multiplicity 1
 O        -0.117825        -0.016313        -0.155483
 C        -0.973488         0.564863         0.742193
 C        -1.253508         2.036546         1.201940
 C        -2.346777         1.253099         1.774051
 C        -1.358313         0.090203         2.256615
 C        -3.721551         1.633319         1.993560
 C        -4.371127         1.664368         0.473954
 O        -3.251986         1.143913        -0.431983
 C        -2.467589         0.416662         0.466662
 H         0.597225        -0.545600         0.278209
 H        -0.415689         2.402074         1.797002
 H        -1.506730         2.741257         0.306507
 H        -0.711941         0.484456         3.042322
 H        -1.833642        -0.825487         2.575336
 H        -4.212080         1.056234         2.852226
 H        -3.752199         2.617216         2.477525
 H        -5.182135         1.023029         0.504561
 H        -4.795468         2.683227         0.313689
 H        -2.839656        -0.622741         0.466479
