19
Iteration:  3576
 O         0.127658         0.153537        -0.067424
 C        -0.985743         0.521941         0.725767
 C        -1.448549         1.989219         1.063885
 C        -2.429811         1.076566         1.762563
 C        -1.030647         0.194596         2.180326
 C        -3.854258         1.723482         1.968897
 C        -4.226011         1.947733         0.509671
 O        -3.502347         0.858802        -0.331772
 C        -2.516479         0.156098         0.593103
 H        -0.201045         0.236135        -0.962096
 H        -0.723620         2.644895         1.680838
 H        -1.842705         2.671726         0.302567
 H        -0.512074         0.751808         2.926746
 H        -1.233514        -0.663376         2.764867
 H        -4.600277         1.233249         2.634977
 H        -3.633761         2.723683         2.413480
 H        -5.330931         1.867106         0.339473
 H        -3.659642         2.840421         0.039129
 H        -2.847506        -0.873439         0.733757
