19
Iteration:  2387charge 0 multiplicity 1
 O        -0.071826         0.147485        -0.250420
 C        -0.997896         0.469416         0.767798
 C        -1.261150         1.987786         1.061168
 C        -2.320471         1.241334         1.865534
 C        -1.253211         0.241346         2.263045
 C        -3.730680         1.729435         2.046415
 C        -4.279408         1.709100         0.413385
 O        -3.382859         0.906655        -0.346366
 C        -2.587009         0.213944         0.563108
 H         0.682864         0.696529        -0.032096
 H        -0.338813         2.379917         1.496391
 H        -1.579662         2.659108         0.314516
 H        -0.347168         0.624324         2.862235
 H        -1.467543        -0.789611         2.801803
 H        -4.315359         1.135960         2.824413
 H        -3.894098         2.761312         2.328603
 H        -5.334097         1.437161         0.393119
 H        -4.357712         2.765012         0.168436
 H        -3.098556        -0.695187         0.752621
