19
Iteration:  3426
 O         0.060495         0.077546        -0.102625
 C        -0.938794         0.545950         0.747300
 C        -1.044883         1.986369         1.118353
 C        -2.392478         1.277549         1.725252
 C        -1.255558         0.145589         2.276409
 C        -3.813085         1.804286         1.926563
 C        -4.505904         1.461725         0.615595
 O        -3.397491         1.050362        -0.357484
 C        -2.539953         0.445671         0.475239
 H        -0.324906        -0.113522        -0.955220
 H        -0.281514         2.333521         1.831360
 H        -1.044232         2.543999         0.211717
 H        -0.623013         0.732089         3.050169
 H        -1.723818        -0.827174         2.417340
 H        -4.182069         1.263880         2.818406
 H        -3.803368         2.869981         2.155402
 H        -5.126442         0.568079         0.634399
 H        -5.186778         2.179796         0.139534
 H        -2.897287        -0.638147         0.578257
