19
Iteration:  1797
 O         0.029289         0.045009        -0.286551
 C        -1.002609         0.519163         0.719306
 C        -1.323856         2.021040         1.220477
 C        -2.491184         1.028904         1.813265
 C        -1.264522         0.092841         2.213152
 C        -3.878029         1.682187         2.019471
 C        -4.152632         1.961151         0.479435
 O        -3.321112         0.990247        -0.357213
 C        -2.532024         0.351373         0.541997
 H         0.822812         0.011018         0.274458
 H        -0.691400         2.624201         1.955889
 H        -1.646573         2.654999         0.406490
 H        -0.590284         0.550218         2.952479
 H        -1.452511        -1.021059         2.575633
 H        -4.664882         1.048806         2.417348
 H        -3.977150         2.599433         2.615312
 H        -5.198078         1.826728         0.285197
 H        -3.827853         2.963676         0.190217
 H        -2.847084        -0.749917         0.665160
