19
Iteration:  2127
 O         0.183316         0.103553        -0.095624
 C        -0.981466         0.476423         0.704102
 C        -1.298458         2.045378         0.979787
 C        -2.400642         1.180813         1.761621
 C        -1.263953         0.253922         2.270646
 C        -3.807854         1.680632         2.033196
 C        -4.262717         1.835563         0.541207
 O        -3.450768         0.940843        -0.322170
 C        -2.618375         0.184174         0.564021
 H        -0.105295         0.134406        -1.053086
 H        -0.608752         2.567527         1.735650
 H        -1.372269         2.439758        -0.072081
 H        -0.405764         0.620483         2.856081
 H        -1.616001        -0.650805         2.700544
 H        -4.419243         0.901072         2.585891
 H        -3.797426         2.609956         2.559243
 H        -5.343999         1.662283         0.371014
 H        -3.926048         2.874841         0.335819
 H        -3.000789        -0.799443         0.549665
