19
Iteration:  3585
 O         0.088791         0.229170        -0.077602
 C        -1.014337         0.526899         0.738339
 C        -1.382132         1.950997         1.038610
 C        -2.421039         1.121659         1.850953
 C        -1.094943         0.170999         2.284109
 C        -3.765238         1.724167         1.998203
 C        -4.178986         1.904433         0.428448
 O        -3.504451         0.822878        -0.330358
 C        -2.570013         0.222368         0.532300
 H        -0.179479         0.201694        -0.996174
 H        -0.585520         2.451642         1.653333
 H        -1.858688         2.467699         0.185960
 H        -0.382691         0.758628         2.799348
 H        -1.208958        -0.938108         2.509264
 H        -4.621729         1.191876         2.462142
 H        -3.635517         2.739704         2.479175
 H        -5.270488         1.706903         0.516626
 H        -4.099970         2.934415        -0.113243
 H        -2.863948        -0.854212         0.721014
