19
Iteration:   756charge 0 multiplicity 1
 O        -0.011460        -0.190035        -0.103488
 C        -0.898836         0.614317         0.731134
 C        -1.308143         2.053234         1.074586
 C        -2.427375         1.130309         1.670194
 C        -1.348750         0.346154         2.384357
 C        -3.792939         1.709617         2.013033
 C        -4.339180         1.609402         0.594408
 O        -3.322838         1.155490        -0.404390
 C        -2.460526         0.353748         0.394274
 H         0.957982        -0.076193         0.169045
 H        -0.643395         2.686819         1.689691
 H        -1.562057         2.664548         0.213058
 H        -0.689987         0.673218         3.288339
 H        -1.679631        -0.683639         2.609081
 H        -4.431631         1.113476         2.623609
 H        -3.766721         2.679710         2.518799
 H        -5.087026         0.888878         0.322692
 H        -4.678752         2.512795         0.092624
 H        -2.641063        -0.751555         0.383474
