19
Iteration:  2294
 O         0.094479        -0.061000        -0.152922
 C        -0.944447         0.525458         0.659004
 C        -1.231562         2.031157         0.942905
 C        -2.323816         1.282626         1.732001
 C        -1.417895         0.233557         2.307993
 C        -3.740722         1.707503         2.024451
 C        -4.409808         1.521086         0.702992
 O        -3.369763         1.107364        -0.375487
 C        -2.557061         0.426557         0.489471
 H         1.006739        -0.123578         0.249309
 H        -0.519084         2.669740         1.602640
 H        -1.588226         2.710885         0.095026
 H        -0.617432         0.525882         2.994219
 H        -1.728795        -0.730703         2.606060
 H        -4.090546         1.067076         2.781392
 H        -3.987445         2.734052         2.389653
 H        -5.236285         0.770486         0.509979
 H        -4.935828         2.457233         0.279858
 H        -2.871524        -0.598738         0.765952
