19
Iteration:  1470
 O        -0.009234         0.153026        -0.176059
 C        -1.007947         0.546524         0.779442
 C        -1.263339         1.961920         1.216861
 C        -2.426576         1.118411         1.829812
 C        -1.297739         0.060424         2.263863
 C        -3.812496         1.637323         1.997146
 C        -4.181434         1.930121         0.417199
 O        -3.370033         1.043968        -0.369505
 C        -2.530330         0.308174         0.476763
 H        -0.230604        -0.758261        -0.387993
 H        -0.471299         2.313130         1.890452
 H        -1.227992         2.725900         0.383366
 H        -0.556182         0.270436         2.995840
 H        -1.484653        -0.997043         2.304809
 H        -4.567155         0.905159         2.537857
 H        -3.864445         2.557041         2.616469
 H        -5.205763         1.789508        -0.019661
 H        -3.857785         3.017985         0.207234
 H        -2.708535        -0.765817         0.561077
