19
Iteration:  2427
 O        -0.029947         0.038809        -0.180833
 C        -0.959261         0.618084         0.748088
 C        -1.372928         2.075406         0.987859
 C        -2.394070         1.158203         1.839275
 C        -1.229977         0.245791         2.237676
 C        -3.788790         1.680643         2.086040
 C        -4.120354         1.818795         0.479552
 O        -3.531438         0.859736        -0.279454
 C        -2.481849         0.239718         0.485081
 H         0.941352         0.279734        -0.218601
 H        -0.818234         2.769518         1.709212
 H        -1.834059         2.508489         0.029161
 H        -0.492743         0.511623         2.946923
 H        -1.367333        -0.835957         2.438923
 H        -4.470461         1.089853         2.690485
 H        -3.830885         2.699147         2.522298
 H        -5.213001         1.711014         0.226984
 H        -3.536643         2.720154         0.196230
 H        -2.718669        -0.920079         0.594494
