19
Iteration:  3950
 O         0.024173        -0.053001        -0.027453
 C        -1.042078         0.580068         0.572537
 C        -1.269839         2.086571         1.004315
 C        -2.340679         1.218000         1.776706
 C        -1.238769         0.273917         2.287940
 C        -3.855678         1.505173         2.049064
 C        -4.324473         1.816696         0.518785
 O        -3.330564         0.958047        -0.320927
 C        -2.495094         0.323940         0.543577
 H         0.104722         0.457898        -0.873459
 H        -0.519733         2.535803         1.667529
 H        -1.688058         2.817137         0.254851
 H        -0.445230         0.856010         2.845234
 H        -1.653596        -0.708432         2.561344
 H        -4.464625         0.745930         2.603448
 H        -4.030480         2.507063         2.510999
 H        -5.314985         1.539990         0.240607
 H        -3.968068         2.820544         0.307034
 H        -2.794099        -0.757068         0.560653
