19
Iteration:  1957charge 0 multiplicity 1
 O         0.023426         0.173122        -0.175730
 C        -1.059645         0.411313         0.674030
 C        -1.216199         1.955083         1.128370
 C        -2.373614         1.244004         1.800767
 C        -1.360186         0.159926         2.161540
 C        -3.703565         1.775517         1.975219
 C        -4.339211         1.653748         0.531993
 O        -3.294323         1.080576        -0.323860
 C        -2.602850         0.282544         0.568054
 H         0.643665        -0.513806         0.171932
 H        -0.422033         2.268900         1.840196
 H        -1.350002         2.677019         0.389005
 H        -0.498756         0.412039         2.749693
 H        -1.701631        -0.796482         2.507163
 H        -4.363727         1.235224         2.639049
 H        -3.730049         2.844541         2.343440
 H        -5.178952         0.960497         0.329928
 H        -4.607429         2.663730         0.198793
 H        -3.072150        -0.631343         0.871981
