19
Iteration:  4979
 O         0.145763         0.109494         0.076374
 C        -0.972582         0.478281         0.714742
 C        -1.441365         2.049573         0.952123
 C        -2.396735         1.169123         1.780302
 C        -1.274460         0.110182         2.150990
 C        -3.788781         1.670703         2.098648
 C        -4.288075         1.734333         0.494603
 O        -3.382736         1.048712        -0.366864
 C        -2.460822         0.301235         0.529112
 H         0.036462         0.404827        -0.871193
 H        -0.713777         2.791637         1.401608
 H        -1.830921         2.574706         0.112505
 H        -0.541863         0.412096         2.945808
 H        -1.410044        -0.918189         2.393511
 H        -4.395932         0.967642         2.708477
 H        -3.866745         2.674895         2.468987
 H        -5.339949         1.341224         0.279283
 H        -4.339797         2.740863         0.153914
 H        -2.803666        -0.726529         0.552571
