19
Iteration:  2058
 O         0.029892        -0.007631        -0.214112
 C        -0.955264         0.585007         0.682744
 C        -1.310250         2.029689         1.024633
 C        -2.425356         1.108435         1.815865
 C        -1.236173         0.230800         2.276577
 C        -3.819123         1.656359         2.019432
 C        -4.222838         1.925251         0.527670
 O        -3.418577         0.941043        -0.333758
 C        -2.548038         0.263035         0.555374
 H         0.843419         0.107772         0.343085
 H        -0.738319         2.740282         1.648272
 H        -1.709537         2.554052         0.071531
 H        -0.577660         0.692343         2.896382
 H        -1.405720        -0.790974         2.551535
 H        -4.546617         0.842599         2.335209
 H        -3.847774         2.582326         2.696615
 H        -5.300521         1.551458         0.592429
 H        -4.059630         2.939407         0.151416
 H        -2.716164        -0.785654         0.778440
