19
Iteration:  3118charge 0 multiplicity 1
 O        -0.083606         0.037120        -0.135711
 C        -1.020694         0.594699         0.726876
 C        -1.210243         2.047651         1.045521
 C        -2.398483         1.202792         1.757833
 C        -1.273700         0.172903         2.238374
 C        -3.789781         1.764597         2.030922
 C        -4.261718         1.661186         0.550323
 O        -3.372756         0.988430        -0.342986
 C        -2.502112         0.256528         0.513602
 H         0.709741         0.573624        -0.125203
 H        -0.351386         2.397631         1.583708
 H        -1.441793         2.696249         0.219285
 H        -0.631627         0.514986         3.004241
 H        -1.355045        -0.874179         2.395347
 H        -4.341518         1.073123         2.623936
 H        -3.819298         2.802311         2.286958
 H        -5.234978         1.025597         0.599714
 H        -4.419311         2.675612         0.040782
 H        -2.817711        -0.743486         0.800999
