19
Iteration:  3148
 O         0.063485         0.050535        -0.226621
 C        -0.985250         0.561117         0.686323
 C        -1.364640         2.045335         1.179817
 C        -2.399044         1.159160         1.780234
 C        -1.176722         0.052838         2.306180
 C        -3.724111         1.932439         1.911216
 C        -4.388410         1.676513         0.544361
 O        -3.451218         1.004348        -0.319506
 C        -2.477829         0.233782         0.512802
 H         0.894370         0.350877         0.223885
 H        -0.532774         2.480787         1.738667
 H        -1.754512         2.680757         0.392565
 H        -0.497944         0.535427         3.011542
 H        -1.391968        -1.088418         2.521907
 H        -4.349988         1.478137         2.677396
 H        -3.642058         2.993493         1.960974
 H        -5.290181         1.016945         0.637325
 H        -4.679386         2.512972        -0.115373
 H        -2.841537        -0.818342         0.766266
