19
Iteration:  4357charge 0 multiplicity 1
 O         0.069173         0.007511         0.012116
 C        -0.960439         0.564213         0.759706
 C        -1.292285         2.118204         1.036031
 C        -2.358609         1.202630         1.717667
 C        -1.343834         0.183750         2.213776
 C        -3.760037         1.734421         2.011522
 C        -4.316635         1.524226         0.537479
 O        -3.376593         1.098802        -0.351405
 C        -2.473642         0.370478         0.472552
 H        -0.167547        -0.571552        -0.726051
 H        -0.550927         2.678279         1.522624
 H        -1.598606         2.716445         0.101735
 H        -0.702810         0.603124         2.974421
 H        -1.515033        -0.875076         2.482433
 H        -4.277538         1.007801         2.639554
 H        -3.756701         2.768256         2.360606
 H        -5.239751         0.848966         0.486232
 H        -4.886349         2.417776         0.204124
 H        -2.790961        -0.705523         0.538206
