19
Iteration:  3313charge 0 multiplicity 1
 O         0.063474         0.103468        -0.131017
 C        -0.958574         0.584336         0.710312
 C        -1.321819         2.059697         1.070264
 C        -2.423959         1.075490         1.769982
 C        -1.222060         0.155914         2.231773
 C        -3.808192         1.796236         1.980179
 C        -4.132024         1.854546         0.473405
 O        -3.620612         0.766301        -0.264385
 C        -2.466649         0.226220         0.511075
 H         0.706271         0.817211        -0.210830
 H        -0.567009         2.523190         1.739793
 H        -1.905578         2.781239         0.435878
 H        -0.437651         0.657619         2.801768
 H        -1.195954        -0.985912         2.339769
 H        -4.559458         1.358217         2.632177
 H        -3.716601         2.833762         2.361667
 H        -5.175024         1.870894         0.343210
 H        -3.969703         2.920475         0.210034
 H        -2.753670        -0.783098         0.841888
