19
Iteration:  1156
 O         0.078286         0.271021        -0.131024
 C        -1.075741         0.512931         0.727430
 C        -1.276663         1.897441         1.134372
 C        -2.458968         1.129213         1.870247
 C        -1.237416        -0.000310         2.235137
 C        -3.802346         1.805978         1.975950
 C        -4.218516         2.006410         0.379821
 O        -3.395367         0.899329        -0.347710
 C        -2.529319         0.242391         0.574431
 H         0.157093        -0.674005        -0.462053
 H        -0.524653         2.195709         1.768269
 H        -1.578243         2.599075         0.307561
 H        -0.518721         0.453259         3.003783
 H        -1.528640        -1.038367         2.533086
 H        -4.490019         1.045287         2.272573
 H        -3.776790         2.568374         2.761674
 H        -5.242939         1.782665         0.108902
 H        -3.819802         2.910064        -0.003358
 H        -2.896171        -0.732358         0.735541
