19
Iteration:  4582charge 0 multiplicity 1
 O         0.054862         0.013971        -0.058070
 C        -0.957728         0.577435         0.713772
 C        -1.315729         2.042692         1.012088
 C        -2.415354         1.123072         1.753543
 C        -1.295387         0.263352         2.282448
 C        -3.702027         1.689827         1.970978
 C        -4.388018         1.558499         0.567043
 O        -3.386216         1.149845        -0.409558
 C        -2.477678         0.301203         0.505720
 H         0.930133         0.212834         0.370357
 H        -0.775159         2.772000         1.720816
 H        -1.669086         2.596049         0.025868
 H        -0.552620         0.626412         2.901260
 H        -1.475453        -0.799237         2.649985
 H        -4.515045         1.267234         2.572656
 H        -3.739800         2.751074         2.513291
 H        -4.972599         0.616476         0.722316
 H        -4.971650         2.391287         0.117591
 H        -2.811666        -0.768214         0.349373
