19
Iteration:  4231
 O        -0.009229         0.006487        -0.177498
 C        -0.994043         0.543333         0.685309
 C        -1.196280         2.022710         1.056466
 C        -2.410709         1.233195         1.875930
 C        -1.384153         0.259732         2.319315
 C        -3.800930         1.584326         1.970889
 C        -4.262056         1.759623         0.466985
 O        -3.379590         0.911160        -0.386972
 C        -2.447693         0.379788         0.580524
 H         0.673340         0.704857        -0.389640
 H        -0.430564         2.384887         1.785472
 H        -1.453086         2.837677         0.351602
 H        -0.566684         0.774751         2.895597
 H        -1.867128        -0.663570         2.523309
 H        -4.399131         0.763003         2.483297
 H        -4.088376         2.458867         2.555205
 H        -5.326502         1.448988         0.534694
 H        -4.094583         2.838205         0.215533
 H        -2.756034        -0.674724         0.740313
