19
Iteration:  1909
 O        -0.059253        -0.165667        -0.129074
 C        -1.010667         0.532269         0.686151
 C        -1.323324         2.054546         1.193201
 C        -2.395887         1.208722         1.748542
 C        -1.275544         0.149648         2.167005
 C        -3.786956         1.702670         2.010972
 C        -4.308505         1.640811         0.581326
 O        -3.269409         1.199925        -0.323080
 C        -2.467668         0.400464         0.426715
 H         0.654604         0.447463        -0.298523
 H        -0.580767         2.515876         1.815058
 H        -1.702381         2.868360         0.497548
 H        -0.470773         0.534046         2.957469
 H        -1.617249        -0.845143         2.638716
 H        -4.370598         1.173674         2.777944
 H        -3.821386         2.725189         2.256538
 H        -5.092933         0.932483         0.448649
 H        -4.578161         2.489883        -0.059609
 H        -2.817848        -0.704818         0.564950
