19
Iteration:  3287
 O         0.006640         0.180501        -0.201275
 C        -0.989595         0.498835         0.699072
 C        -1.295542         1.937941         1.041067
 C        -2.384576         1.082263         1.810931
 C        -1.231030         0.205035         2.279039
 C        -3.714919         1.835506         2.010577
 C        -4.285927         1.802920         0.419674
 O        -3.425456         0.849765        -0.291350
 C        -2.562113         0.254558         0.567079
 H         0.782650         0.605655         0.206688
 H        -0.596234         2.445029         1.740080
 H        -1.784721         2.624310         0.355998
 H        -0.485303         0.725695         2.837773
 H        -1.414879        -0.776498         2.600414
 H        -4.377701         1.126164         2.569402
 H        -3.777202         2.828818         2.487976
 H        -5.404164         1.475089         0.494693
 H        -4.288297         2.750421        -0.008738
 H        -2.869999        -0.745482         0.795690
