19
Iteration:  3874charge 0 multiplicity 1
 O         0.116055         0.313062        -0.058492
 C        -1.017283         0.453794         0.762620
 C        -1.422939         1.988229         0.950154
 C        -2.368890         1.080196         1.720620
 C        -1.244500         0.176859         2.283834
 C        -3.699893         1.730384         2.040925
 C        -4.235545         1.880808         0.536173
 O        -3.459811         0.924945        -0.340147
 C        -2.564465         0.164519         0.503695
 H         0.154988        -0.636553        -0.264364
 H        -0.711176         2.695946         1.351102
 H        -1.758107         2.388797        -0.057424
 H        -0.340613         0.458631         2.932559
 H        -1.525716        -0.830841         2.542459
 H        -4.392069         1.029603         2.567184
 H        -3.574839         2.658206         2.613067
 H        -5.297364         1.596665         0.302471
 H        -3.847823         2.954902         0.257114
 H        -3.044348        -0.858437         0.694472
