19
Iteration:   766charge 0 multiplicity 1
 O        -0.039425        -0.160928        -0.067103
 C        -0.921953         0.551611         0.732048
 C        -1.401682         2.119982         1.013685
 C        -2.418107         1.160891         1.775732
 C        -1.296853         0.282392         2.272181
 C        -3.800708         1.682405         2.029973
 C        -4.363542         1.687276         0.491497
 O        -3.246955         1.148225        -0.407089
 C        -2.413336         0.299724         0.453442
 H         0.866119        -0.146323         0.405739
 H        -0.716121         2.582409         1.778233
 H        -1.666315         2.727575         0.176315
 H        -0.522514         0.800855         2.962266
 H        -1.540160        -0.730499         2.543878
 H        -4.336717         0.949215         2.592632
 H        -3.807042         2.629598         2.594418
 H        -5.179737         0.958106         0.630240
 H        -4.727054         2.680130         0.207292
 H        -2.871546        -0.702457         0.597982
