19
Iteration:  3036
 O         0.085103         0.019449        -0.138015
 C        -0.916802         0.548971         0.650740
 C        -1.330876         2.069541         1.007107
 C        -2.375996         1.158278         1.770952
 C        -1.251360         0.212514         2.241146
 C        -3.799473         1.683631         2.069154
 C        -4.244846         1.824742         0.561557
 O        -3.476589         0.894821        -0.352722
 C        -2.574632         0.311349         0.474444
 H         0.909669         0.010910         0.409590
 H        -0.907821         2.641772         1.878615
 H        -1.755226         2.797856         0.255470
 H        -0.401406         0.553159         2.904289
 H        -1.671417        -0.860327         2.425213
 H        -4.409658         1.004053         2.711155
 H        -3.934759         2.718351         2.567927
 H        -5.365072         1.701443         0.580524
 H        -4.030321         2.868035         0.283170
 H        -2.722814        -0.822317         0.657727
