19
Iteration:  2343charge 0 multiplicity 1
 O         0.066166        -0.175721        -0.069197
 C        -0.992432         0.493896         0.649225
 C        -1.369682         2.090302         1.043817
 C        -2.371989         1.220728         1.727891
 C        -1.189515         0.314465         2.184003
 C        -3.723319         1.665137         2.095921
 C        -4.444363         1.590384         0.579625
 O        -3.377160         1.148787        -0.374255
 C        -2.493051         0.364172         0.485564
 H         0.812025         0.424832        -0.126738
 H        -0.674432         2.689504         1.612486
 H        -1.750865         2.701077         0.257693
 H        -0.465047         0.740809         2.944395
 H        -1.539996        -0.727944         2.660564
 H        -4.293229         1.091080         2.893186
 H        -3.608490         2.679792         2.453718
 H        -5.371238         1.042176         0.477593
 H        -4.804729         2.544025         0.221483
 H        -2.793671        -0.672312         0.636622
