19
Iteration:  1569charge 0 multiplicity 1
 O         0.239576         0.112619        -0.006996
 C        -0.943534         0.508779         0.747738
 C        -1.198379         1.902579         1.087501
 C        -2.380245         1.146532         1.703037
 C        -1.402163         0.002759         2.192967
 C        -3.777802         1.691466         1.997840
 C        -4.405347         1.932659         0.652256
 O        -3.496704         1.075138        -0.390154
 C        -2.490050         0.398377         0.364338
 H        -0.040033        -0.805254        -0.281684
 H        -0.511505         2.367230         1.843773
 H        -1.505609         2.668947         0.394166
 H        -0.824119         0.266194         3.023438
 H        -1.802485        -1.011427         2.212150
 H        -4.292670         0.961710         2.667699
 H        -3.805414         2.696325         2.417577
 H        -5.426957         1.544338         0.496620
 H        -4.289338         3.021627         0.320595
 H        -2.689644        -0.746377         0.444388
