19
Iteration:  2969
 O         0.023713         0.091957        -0.129692
 C        -0.969894         0.637019         0.649509
 C        -1.374818         2.025227         0.985360
 C        -2.439322         1.043994         1.793982
 C        -1.225551         0.251642         2.235797
 C        -3.804948         1.702807         2.009698
 C        -4.152138         1.835159         0.529657
 O        -3.410905         0.939493        -0.239901
 C        -2.528455         0.262825         0.526855
 H         0.067414        -0.867304        -0.130221
 H        -0.775460         2.536660         1.774682
 H        -1.731515         2.589492         0.114679
 H        -0.352800         0.591360         2.877961
 H        -1.266321        -0.834897         2.425444
 H        -4.583642         1.116320         2.542461
 H        -3.853452         2.663521         2.614294
 H        -5.167987         1.537860         0.260429
 H        -4.055834         2.860531         0.131720
 H        -2.623781        -0.840647         0.666449
