19
Iteration:  1009
 O         0.049352         0.176513        -0.093254
 C        -0.955930         0.429005         0.730560
 C        -1.236315         1.901585         1.189769
 C        -2.372669         1.154621         1.786928
 C        -1.311120         0.079727         2.135101
 C        -3.771219         1.905897         1.925682
 C        -4.360219         1.588652         0.472923
 O        -3.334735         1.131592        -0.296669
 C        -2.513793         0.356617         0.522173
 H         0.103750        -0.754238         0.046383
 H        -0.569976         2.544071         1.849657
 H        -1.515723         2.562000         0.318093
 H        -0.734580         0.394516         2.984070
 H        -1.727079        -0.967378         2.335545
 H        -4.451859         1.544420         2.701516
 H        -3.621828         2.944216         2.045874
 H        -5.251553         0.910777         0.449143
 H        -4.831772         2.455542        -0.112005
 H        -3.047315        -0.590419         0.597716
