19
Iteration:  1645charge 0 multiplicity 1
 O        -0.030024        -0.003194        -0.117669
 C        -0.990755         0.510229         0.665697
 C        -1.235743         1.973842         1.243563
 C        -2.381921         1.101910         1.823675
 C        -1.315033         0.150613         2.224457
 C        -3.839640         1.711505         1.967429
 C        -4.356721         1.677184         0.556035
 O        -3.233532         1.271984        -0.393045
 C        -2.463732         0.418342         0.407403
 H        -0.171907        -0.898537        -0.385345
 H        -0.447113         2.267581         1.978520
 H        -1.451669         2.711986         0.503966
 H        -0.567622         0.434748         2.973405
 H        -1.752189        -0.912522         2.363899
 H        -4.338229         0.962501         2.584231
 H        -3.754472         2.627883         2.499019
 H        -5.128371         0.889224         0.392670
 H        -4.809603         2.680866         0.212696
 H        -2.831089        -0.615689         0.519332
