19
Iteration:   406
 O         0.080840         0.194412        -0.059872
 C        -1.041642         0.364820         0.712990
 C        -1.079625         1.981012         1.147084
 C        -2.410064         1.175088         1.818078
 C        -1.288129         0.049548         2.198264
 C        -3.781944         1.868994         1.906572
 C        -4.351451         1.646838         0.457104
 O        -3.402682         1.087628        -0.357291
 C        -2.576206         0.363927         0.567144
 H         0.211904        -0.771253        -0.056626
 H        -0.387601         2.281475         1.855108
 H        -1.447467         2.561450         0.287944
 H        -0.680113         0.586456         2.854397
 H        -1.424577        -0.921572         2.573033
 H        -4.604538         1.539092         2.492547
 H        -3.724094         2.972599         2.039089
 H        -5.215445         0.935583         0.502384
 H        -4.743192         2.530528        -0.120757
 H        -2.961212        -0.663690         0.695766
