19
Iteration:  3967charge 0 multiplicity 1
 O         0.128994        -0.042317        -0.039649
 C        -0.949989         0.470893         0.752739
 C        -1.354498         1.969405         0.901529
 C        -2.427008         1.158773         1.745256
 C        -1.249974         0.349971         2.262521
 C        -3.836711         1.581362         2.044914
 C        -4.301821         1.770511         0.591671
 O        -3.364636         1.156235        -0.360557
 C        -2.537603         0.268908         0.494858
 H         0.247567         0.479292        -0.874732
 H        -0.679262         2.613129         1.492158
 H        -1.707495         2.492289        -0.000323
 H        -0.536872         0.841776         2.938617
 H        -1.422155        -0.636369         2.677836
 H        -4.238859         0.684038         2.521068
 H        -3.944585         2.415882         2.713518
 H        -5.326290         1.280492         0.442530
 H        -4.318886         2.873352         0.353569
 H        -2.886041        -0.749669         0.753292
