19
Iteration:  4786charge 0 multiplicity 1
 O         0.276234         0.212140         0.015306
 C        -0.929587         0.604813         0.711989
 C        -1.444404         2.040479         0.961048
 C        -2.467588         1.011201         1.735352
 C        -1.290749         0.176306         2.189362
 C        -3.781161         1.679109         2.056318
 C        -4.205889         1.892887         0.492764
 O        -3.501082         0.935889        -0.347329
 C        -2.621434         0.168220         0.519420
 H         0.536458        -0.695813         0.325417
 H        -0.779555         2.595931         1.612841
 H        -1.701665         2.671654         0.113730
 H        -0.550879         0.710434         2.875638
 H        -1.548203        -0.912618         2.452549
 H        -4.374243         0.890836         2.574196
 H        -3.589975         2.673033         2.453898
 H        -5.248829         1.701961         0.238726
 H        -3.832518         2.975411         0.359806
 H        -2.903284        -0.896097         0.444593
