19
Iteration:   196
 O         0.177107        -0.033851        -0.023556
 C        -0.963648         0.547553         0.753171
 C        -1.309676         2.068233         1.030254
 C        -2.427563         1.104083         1.741031
 C        -1.232360         0.256649         2.243221
 C        -3.872854         1.678312         1.985411
 C        -4.254003         1.915826         0.478208
 O        -3.458439         0.979610        -0.313385
 C        -2.491626         0.268938         0.499621
 H        -0.307225        -0.619643        -0.591954
 H        -0.692018         2.469952         1.777304
 H        -1.653205         2.632726         0.212308
 H        -0.568413         0.717579         2.944662
 H        -1.443385        -0.729145         2.547885
 H        -4.537363         0.889597         2.426550
 H        -3.864091         2.551000         2.642424
 H        -5.303122         1.630994         0.282356
 H        -4.083223         2.959420         0.040381
 H        -2.897180        -0.753628         0.476993
