19
Iteration:  4427
 O         0.084633         0.038744        -0.037368
 C        -1.001340         0.577730         0.739133
 C        -1.317460         2.040601         1.034474
 C        -2.421901         1.219936         1.749447
 C        -1.277452         0.169092         2.218730
 C        -3.810046         1.688702         1.990267
 C        -4.227209         1.845282         0.553699
 O        -3.477025         0.802295        -0.367227
 C        -2.443210         0.334922         0.516062
 H         0.461527         0.884565        -0.349320
 H        -0.594865         2.800402         1.477317
 H        -1.784157         2.560521         0.271966
 H        -0.626326         0.682039         2.928897
 H        -1.412843        -0.842557         2.457720
 H        -4.281402         0.793133         2.448595
 H        -3.963458         2.567160         2.635936
 H        -5.192756         1.504033         0.369229
 H        -4.202703         2.756178        -0.011547
 H        -2.622245        -0.731345         0.759244
