19
Iteration:  1087charge 0 multiplicity 1
 O         0.154859         0.051562         0.064383
 C        -0.957594         0.461298         0.721927
 C        -1.283516         1.972378         0.926248
 C        -2.448799         1.169310         1.745429
 C        -1.282039         0.172121         2.209520
 C        -3.806612         1.558396         2.062189
 C        -4.261200         1.882916         0.469433
 O        -3.452522         1.123234        -0.339052
 C        -2.568105         0.417527         0.503375
 H        -0.020817        -0.898740        -0.081090
 H        -0.439791         2.485669         1.540320
 H        -1.579987         2.482683         0.045929
 H        -0.483716         0.589301         2.841004
 H        -1.210530        -0.940786         2.334831
 H        -4.252800         0.638890         2.416593
 H        -4.107637         2.350382         2.696780
 H        -5.283807         1.467662         0.297945
 H        -4.091595         2.987366         0.263675
 H        -2.950426        -0.598650         0.520237
