19
Iteration:  2352charge 0 multiplicity 1
 O         0.036271        -0.123955        -0.130149
 C        -0.919634         0.512085         0.737213
 C        -1.379860         2.125455         1.027323
 C        -2.348062         1.196153         1.752462
 C        -1.251401         0.296229         2.213839
 C        -3.749050         1.721261         2.046485
 C        -4.361051         1.635509         0.576077
 O        -3.395874         1.122261        -0.306912
 C        -2.521871         0.264341         0.491567
 H         0.833455         0.367416        -0.316055
 H        -0.557553         2.553729         1.595933
 H        -1.840891         2.669151         0.179105
 H        -0.538061         0.808239         2.890359
 H        -1.651775        -0.818518         2.376055
 H        -4.219819         1.002552         2.728478
 H        -3.840099         2.725537         2.404763
 H        -5.126657         0.840055         0.485127
 H        -4.599878         2.586445         0.148425
 H        -2.813417        -0.764552         0.496939
