19
Iteration:  2087charge 0 multiplicity 1
 O        -0.044142         0.186713        -0.198071
 C        -1.034475         0.552567         0.799693
 C        -1.288990         2.082260         1.111513
 C        -2.380804         1.182558         1.800314
 C        -1.202724         0.152378         2.248556
 C        -3.751260         1.732767         2.041316
 C        -4.174188         1.802044         0.435130
 O        -3.459142         0.865316        -0.337240
 C        -2.542018         0.171640         0.494018
 H         0.154725        -0.742965        -0.065228
 H        -0.704003         2.733957         1.759270
 H        -1.595396         2.697847         0.323778
 H        -0.410895         0.621767         3.001713
 H        -1.516033        -0.937156         2.449351
 H        -4.358455         1.189633         2.702045
 H        -3.758796         2.803272         2.310684
 H        -5.208688         1.767602         0.202536
 H        -3.829347         2.812976         0.096898
 H        -2.711590        -0.938111         0.747944
