19
Iteration:  4560
 O        -0.034280         0.060410        -0.144194
 C        -0.991858         0.563201         0.727067
 C        -1.379563         2.023690         1.034571
 C        -2.383862         1.233314         1.787635
 C        -1.275901         0.234191         2.222003
 C        -3.832015         1.773072         2.027515
 C        -4.349921         1.492272         0.480307
 O        -3.240630         1.052109        -0.316855
 C        -2.411307         0.292766         0.513972
 H         0.793426         0.157189         0.328470
 H        -0.475543         2.430928         1.651439
 H        -1.653057         2.842300         0.264065
 H        -0.629862         0.494956         2.984705
 H        -1.479245        -0.875901         2.347562
 H        -4.255168         1.226502         2.907271
 H        -4.204812         2.806123         2.423755
 H        -5.247823         0.867880         0.288021
 H        -4.459866         2.530489         0.091528
 H        -2.972971        -0.672657         0.701473
