19
Iteration:  3890charge 0 multiplicity 1
 O         0.161735         0.274807        -0.067939
 C        -1.005717         0.527409         0.619293
 C        -1.372739         1.884453         0.988395
 C        -2.453208         1.109610         1.780321
 C        -1.311300         0.227286         2.208608
 C        -3.754102         1.731549         2.042182
 C        -4.132419         1.886195         0.538996
 O        -3.426012         0.853621        -0.315731
 C        -2.592334         0.191313         0.579363
 H        -0.041811        -0.272129        -0.846603
 H        -0.689039         2.322598         1.780950
 H        -1.674429         2.597887         0.247550
 H        -0.751217         0.739136         2.955884
 H        -1.484482        -0.817895         2.614480
 H        -4.469000         1.172167         2.633441
 H        -3.678816         2.765616         2.438297
 H        -5.244652         1.806537         0.553826
 H        -4.123525         2.794078         0.023199
 H        -2.627799        -0.901002         0.786947
