19
Iteration:  3054
 O        -0.039860        -0.065859         0.004947
 C        -1.028452         0.627758         0.682708
 C        -1.388564         2.098986         1.024222
 C        -2.372858         1.154965         1.751744
 C        -1.187612         0.252379         2.159915
 C        -3.729455         1.558430         2.017455
 C        -4.262221         1.823894         0.553686
 O        -3.461726         1.019266        -0.336020
 C        -2.454800         0.279330         0.474698
 H         0.869724         0.104936         0.332076
 H        -0.509809         2.638014         1.397236
 H        -1.754455         2.577939         0.129867
 H        -0.446354         0.846906         2.826045
 H        -1.306358        -0.784908         2.239256
 H        -4.235444         0.672253         2.473718
 H        -3.691458         2.449356         2.694444
 H        -5.236404         1.461550         0.456287
 H        -4.187523         2.884153         0.279145
 H        -2.877468        -0.700210         0.629994
