19
Iteration:   726
 O         0.057547        -0.014272        -0.025924
 C        -1.022548         0.489628         0.742367
 C        -1.108836         1.962623         1.100126
 C        -2.354410         1.307940         1.694813
 C        -1.324609         0.172731         2.263561
 C        -3.781408         1.840661         1.943245
 C        -4.461698         1.509683         0.533998
 O        -3.359822         1.133826        -0.397548
 C        -2.551561         0.367480         0.532158
 H         0.783169         0.567249        -0.004350
 H        -0.305107         2.241843         1.760028
 H        -1.295245         2.556671         0.144784
 H        -0.454860         0.358370         2.920755
 H        -1.955240        -0.749296         2.338592
 H        -4.342092         1.115829         2.590213
 H        -3.719760         2.900948         2.193836
 H        -5.089019         0.603174         0.492881
 H        -5.007901         2.265704        -0.027898
 H        -2.995133        -0.620027         0.778069
