19
Iteration:  2527
 O        -0.033820        -0.056279        -0.199449
 C        -1.019729         0.593720         0.687916
 C        -1.179019         2.032835         1.135230
 C        -2.370956         1.222734         1.817815
 C        -1.165480         0.220162         2.212205
 C        -3.756399         1.841936         2.008339
 C        -4.479637         1.485069         0.585949
 O        -3.350209         1.054067        -0.395229
 C        -2.531077         0.384836         0.516131
 H         0.863237         0.090219         0.113293
 H        -0.421495         2.576466         1.838242
 H        -1.547877         2.608202         0.281530
 H        -0.355533         0.480071         2.867972
 H        -1.560080        -0.817170         2.477030
 H        -4.320809         1.587738         2.926601
 H        -3.799095         2.904742         2.144134
 H        -5.306219         0.626182         0.640235
 H        -5.061562         2.310191         0.098634
 H        -2.798709        -0.748949         0.689906
