19
Iteration:  1134charge 0 multiplicity 1
 O         0.141868         0.202375        -0.047880
 C        -0.923480         0.548834         0.739773
 C        -1.291173         1.979131         1.108324
 C        -2.472884         1.085038         1.748478
 C        -1.349284         0.078590         2.221327
 C        -3.743019         1.716441         1.966176
 C        -4.094321         1.902007         0.511192
 O        -3.538007         0.950932        -0.330170
 C        -2.559188         0.244417         0.462810
 H        -0.016057        -0.630017        -0.477377
 H        -0.742995         2.573861         1.770326
 H        -1.679436         2.487799         0.191710
 H        -0.689611         0.397866         3.120197
 H        -1.772397        -0.920607         2.507272
 H        -4.566103         1.260561         2.457865
 H        -3.722033         2.767045         2.334139
 H        -5.172978         1.848470         0.429534
 H        -3.676283         2.827945         0.197429
 H        -2.899582        -0.760867         0.556692
