19
Iteration:  1735charge 0 multiplicity 1
 O         0.125287        -0.013321         0.010154
 C        -1.038945         0.491129         0.649705
 C        -1.304972         2.003270         1.091327
 C        -2.434138         1.047719         1.768630
 C        -1.178418         0.065700         2.207578
 C        -3.904944         1.685672         2.037180
 C        -4.282411         1.950364         0.525250
 O        -3.368997         1.127967        -0.293953
 C        -2.532294         0.301893         0.424383
 H         0.259070         0.574039        -0.745923
 H        -0.599998         2.426045         1.781967
 H        -1.525006         2.652868         0.220948
 H        -0.435694         0.402566         2.945083
 H        -1.491886        -0.976929         2.387389
 H        -4.534634         0.833767         2.400970
 H        -4.064187         2.620022         2.548431
 H        -5.283113         1.746243         0.069280
 H        -3.982412         3.029298         0.313047
 H        -2.806301        -0.738375         0.314302
