19
Iteration:  1116
 O         0.238013         0.105493         0.016535
 C        -0.973081         0.477916         0.647579
 C        -1.341233         1.985094         1.060318
 C        -2.436101         1.091939         1.698916
 C        -1.373917         0.201009         2.250521
 C        -3.770570         1.671201         2.089492
 C        -4.239930         2.044924         0.526399
 O        -3.490074         0.919201        -0.356956
 C        -2.535994         0.281080         0.420557
 H         0.016286        -0.723981        -0.384131
 H        -0.606665         2.355566         1.805623
 H        -1.600776         2.768498         0.305394
 H        -0.605697         0.544195         2.901943
 H        -1.519470        -0.858819         2.341255
 H        -4.362053         0.820996         2.586173
 H        -3.726067         2.550807         2.801488
 H        -5.293024         1.851400         0.282784
 H        -3.967862         3.069217         0.165464
 H        -2.729389        -0.852094         0.450673
