19
Iteration:  2112
 O         0.162633         0.200887        -0.140034
 C        -1.030146         0.487899         0.642099
 C        -1.288436         1.898363         0.998688
 C        -2.371426         1.190973         1.831001
 C        -1.256911         0.181770         2.277150
 C        -3.837647         1.733158         1.945868
 C        -4.238998         1.884348         0.449387
 O        -3.441821         0.909223        -0.190796
 C        -2.538306         0.246596         0.600551
 H        -0.107510        -0.361658        -0.893469
 H        -0.451209         2.364411         1.447330
 H        -1.768866         2.699907         0.420525
 H        -0.558437         0.610222         2.930768
 H        -1.534685        -0.869625         2.454257
 H        -4.452275         0.929906         2.416457
 H        -4.068476         2.684756         2.535786
 H        -5.342662         1.628021         0.272529
 H        -4.190782         2.848526        -0.033793
 H        -2.787528        -0.814754         0.946746
