19
Iteration:   347
 O         0.076067        -0.021207         0.073679
 C        -0.985143         0.555782         0.735385
 C        -1.180169         2.013063         1.019307
 C        -2.339678         1.288612         1.725717
 C        -1.324849         0.189739         2.222540
 C        -3.768913         1.695814         2.000648
 C        -4.412608         1.632574         0.555294
 O        -3.373629         1.142469        -0.438560
 C        -2.510807         0.304978         0.459916
 H        -0.200031        -0.818617        -0.393507
 H        -0.570954         2.616384         1.810427
 H        -1.356578         2.767260         0.263869
 H        -0.533347         0.576195         2.972470
 H        -1.794482        -0.860478         2.422168
 H        -4.231999         0.896475         2.644276
 H        -3.850510         2.683663         2.456327
 H        -5.301396         1.019687         0.451430
 H        -4.635809         2.673472         0.243449
 H        -2.968784        -0.695959         0.475785
