19
Iteration:  2438
 O        -0.012934        -0.004408        -0.130376
 C        -0.960201         0.591690         0.673041
 C        -1.438538         2.073383         0.990820
 C        -2.391367         1.156443         1.751846
 C        -1.177767         0.253936         2.240722
 C        -3.775452         1.662116         2.067804
 C        -4.091811         1.862719         0.591149
 O        -3.524527         0.819539        -0.347169
 C        -2.510774         0.292610         0.534077
 H         0.772037         0.451414         0.220013
 H        -0.783182         2.794874         1.592113
 H        -1.711061         2.617862         0.031932
 H        -0.478984         0.691251         2.918765
 H        -1.574342        -0.762552         2.391822
 H        -4.303543         0.806658         2.485587
 H        -3.917733         2.594982         2.618877
 H        -5.197972         1.950439         0.426021
 H        -3.837769         2.904974         0.328096
 H        -2.703633        -0.862723         0.565003
