19
Iteration:  1911charge 0 multiplicity 1
 O        -0.054907        -0.165318        -0.157604
 C        -0.998063         0.533453         0.691888
 C        -1.318192         2.074637         1.179229
 C        -2.403016         1.181074         1.749714
 C        -1.289777         0.149201         2.194450
 C        -3.782490         1.702440         2.009983
 C        -4.312664         1.641231         0.575572
 O        -3.265529         1.204957        -0.328124
 C        -2.465986         0.393457         0.446201
 H         0.687996         0.426302        -0.277026
 H        -0.586511         2.507043         1.831260
 H        -1.727477         2.832321         0.508970
 H        -0.563444         0.558072         3.005894
 H        -1.636551        -0.804861         2.619536
 H        -4.368213         1.202651         2.777734
 H        -3.770134         2.744105         2.286559
 H        -5.139864         0.918916         0.492515
 H        -4.584044         2.479644        -0.064234
 H        -2.820329        -0.650105         0.555760
