19
Iteration:  1207charge 0 multiplicity 1
 O         0.035722         0.013565        -0.103201
 C        -0.977239         0.555736         0.769850
 C        -1.295217         2.004357         1.022498
 C        -2.409882         1.124674         1.812345
 C        -1.373353         0.188880         2.275307
 C        -3.796054         1.594089         2.026475
 C        -4.123570         1.848525         0.535590
 O        -3.349822         1.128066        -0.374838
 C        -2.509397         0.356079         0.421416
 H        -0.179659        -0.954487        -0.255670
 H        -0.718528         2.604223         1.835576
 H        -1.794935         2.595591         0.219977
 H        -0.633167         0.582698         3.011815
 H        -1.661094        -0.841886         2.416210
 H        -4.414101         0.705279         2.442907
 H        -3.959121         2.408403         2.751318
 H        -5.122369         1.327142         0.325804
 H        -4.224401         2.960511         0.198787
 H        -2.920323        -0.754766         0.472258
