19
Iteration:   111
 O         0.030541         0.044337        -0.084010
 C        -1.017963         0.528109         0.713533
 C        -1.165728         1.957380         1.157570
 C        -2.399211         1.279456         1.783820
 C        -1.212876         0.168205         2.206014
 C        -3.789172         1.885322         1.903529
 C        -4.397345         1.576848         0.501528
 O        -3.377769         1.026368        -0.401181
 C        -2.569971         0.329360         0.528503
 H         0.591390        -0.567139         0.508058
 H        -0.434596         2.341661         1.864242
 H        -1.334345         2.770003         0.456706
 H        -0.487238         0.592347         2.858490
 H        -1.518158        -0.841219         2.350883
 H        -4.339784         1.300517         2.582554
 H        -3.823116         2.972200         2.136505
 H        -5.169445         0.820928         0.723860
 H        -4.877397         2.442857         0.117715
 H        -2.904155        -0.697304         0.755490
