19
Iteration:    37
 O         0.104301        -0.145261         0.066357
 C        -0.987767         0.525896         0.649884
 C        -1.233344         2.045772         0.991787
 C        -2.361416         1.273428         1.736506
 C        -1.246311         0.246542         2.208626
 C        -3.887186         1.759683         1.942589
 C        -4.417809         1.577614         0.568957
 O        -3.379673         1.097626        -0.310413
 C        -2.485788         0.380550         0.508961
 H         0.491582         0.415928        -0.630309
 H        -0.383003         2.396040         1.647747
 H        -1.525503         2.758283         0.147565
 H        -0.463521         0.613439         2.919653
 H        -1.657694        -0.835121         2.356951
 H        -4.307460         1.085727         2.661284
 H        -3.933993         2.821314         2.324806
 H        -5.317241         0.917877         0.543545
 H        -4.692032         2.496276         0.130355
 H        -2.845989        -0.667003         0.655834
