19
Iteration:  4964charge 0 multiplicity 1
 O         0.226913         0.072699         0.074426
 C        -0.933020         0.629639         0.711511
 C        -1.303958         2.018221         1.013570
 C        -2.407167         1.096065         1.776906
 C        -1.245225         0.134510         2.212219
 C        -3.721039         1.693136         1.999337
 C        -4.416557         1.761047         0.487563
 O        -3.469722         1.004838        -0.360865
 C        -2.605289         0.312058         0.454553
 H         0.441758         0.662870        -0.666829
 H        -0.685022         2.534659         1.695662
 H        -1.837127         2.348219         0.128043
 H        -0.451289         0.412978         2.938117
 H        -1.670736        -0.948676         2.253019
 H        -4.362741         1.099003         2.630496
 H        -3.623041         2.638325         2.583718
 H        -5.368872         1.185744         0.583978
 H        -4.568602         2.791031         0.058036
 H        -2.875504        -0.744396         0.649809
