19
Iteration:  1199charge 0 multiplicity 1
 O        -0.030060         0.068789        -0.137095
 C        -0.967367         0.581636         0.714700
 C        -1.302541         1.986115         1.082627
 C        -2.381788         1.060011         1.760026
 C        -1.375674         0.135845         2.309494
 C        -3.828506         1.619518         2.098694
 C        -4.156700         1.917602         0.464167
 O        -3.306131         1.075191        -0.393790
 C        -2.473719         0.346060         0.511390
 H        -0.158084        -0.930892        -0.107509
 H        -0.628467         2.610387         1.611797
 H        -1.713761         2.464034         0.132537
 H        -0.696457         0.642335         3.064649
 H        -1.661246        -0.894537         2.604553
 H        -4.404645         0.803265         2.381579
 H        -4.023324         2.476499         2.682737
 H        -5.191525         1.483628         0.515033
 H        -4.146901         2.954379         0.063293
 H        -2.633764        -0.709173         0.384252
