19
Iteration:  2516charge 0 multiplicity 1
 O        -0.077696        -0.039893        -0.123326
 C        -0.973412         0.559426         0.650692
 C        -1.254602         2.079446         1.075940
 C        -2.369555         1.227769         1.766230
 C        -1.262654         0.236686         2.148495
 C        -3.779780         1.797093         2.006609
 C        -4.360714         1.523985         0.633786
 O        -3.381336         1.038053        -0.328169
 C        -2.462031         0.360417         0.497273
 H         0.804509        -0.015435         0.316235
 H        -0.349430         2.409151         1.747227
 H        -1.488270         2.902278         0.386822
 H        -0.482928         0.692111         2.741576
 H        -1.383246        -0.876852         2.310869
 H        -4.363434         1.241293         2.755858
 H        -3.589438         2.840509         2.121516
 H        -5.113431         0.611508         0.677376
 H        -4.730190         2.485574         0.205076
 H        -2.892987        -0.720411         0.741449
