19
Iteration:  1567charge 0 multiplicity 1
 O         0.240488         0.100977        -0.002379
 C        -0.927152         0.535260         0.741624
 C        -1.221693         1.899016         1.103948
 C        -2.380371         1.148638         1.699567
 C        -1.423708        -0.001709         2.184052
 C        -3.775489         1.693754         1.997079
 C        -4.370525         1.930386         0.646094
 O        -3.513939         1.073337        -0.389405
 C        -2.483719         0.397648         0.368348
 H        -0.023871        -0.780016        -0.274073
 H        -0.519053         2.406620         1.770800
 H        -1.519455         2.669712         0.335467
 H        -0.787956         0.308784         3.056464
 H        -1.763822        -1.088382         2.198383
 H        -4.211935         0.981033         2.647649
 H        -3.815250         2.678974         2.483193
 H        -5.410428         1.519149         0.503551
 H        -4.290063         2.994770         0.364802
 H        -2.763952        -0.750394         0.426506
