19
Iteration:  4991charge 0 multiplicity 1
 O         0.129542         0.086176        -0.004610
 C        -1.028706         0.582942         0.700980
 C        -1.399019         2.041259         0.992299
 C        -2.417648         1.155718         1.766351
 C        -1.223646         0.217131         2.232004
 C        -3.872754         1.636152         2.022805
 C        -4.225670         1.756641         0.592054
 O        -3.271985         1.022204        -0.359069
 C        -2.563676         0.225170         0.470024
 H        -0.015583         0.072278        -0.955782
 H        -0.675429         2.526562         1.698447
 H        -1.804277         2.593692         0.116975
 H        -0.502386         0.599204         2.980137
 H        -1.701469        -0.705886         2.339442
 H        -4.460107         0.858742         2.570508
 H        -3.976821         2.585914         2.546631
 H        -5.222198         1.315482         0.381279
 H        -4.138988         2.798812         0.341595
 H        -2.918997        -0.801186         0.620728
