19
Iteration:  3668charge 0 multiplicity 1
 O         0.121473        -0.137328         0.065284
 C        -0.937264         0.572099         0.614433
 C        -1.354786         2.063044         0.909561
 C        -2.414131         1.245999         1.757329
 C        -1.264101         0.279289         2.158702
 C        -3.845194         1.583817         2.173032
 C        -4.345829         1.572169         0.602851
 O        -3.267816         1.222139        -0.397163
 C        -2.544776         0.375702         0.504502
 H         0.013485        -0.059442        -0.923577
 H        -0.706206         2.733700         1.446674
 H        -1.760668         2.622876         0.024307
 H        -0.522622         0.702006         2.872788
 H        -1.532787        -0.701904         2.557942
 H        -4.371102         0.771015         2.669812
 H        -4.068601         2.501065         2.715317
 H        -5.169217         0.811797         0.637678
 H        -4.624865         2.553060         0.338112
 H        -2.910122        -0.635222         0.464718
