19
Iteration:  1863
 O         0.267876         0.014868        -0.027329
 C        -0.929010         0.451492         0.766300
 C        -1.230473         1.908399         1.024080
 C        -2.369951         1.217639         1.684565
 C        -1.442934         0.174839         2.219267
 C        -3.807277         1.672331         2.011450
 C        -4.414398         1.729282         0.674073
 O        -3.443883         1.235634        -0.344942
 C        -2.475553         0.342671         0.383197
 H        -0.111544        -0.422750        -0.830625
 H        -0.681881         2.540701         1.768889
 H        -1.373390         2.436410         0.056326
 H        -0.691851         0.410871         2.990899
 H        -1.919558        -0.838032         2.499631
 H        -4.233097         0.917300         2.686214
 H        -3.916661         2.588161         2.589136
 H        -5.407614         1.349371         0.581118
 H        -4.412837         2.761319         0.327248
 H        -2.868151        -0.745305         0.269383
