19
Iteration:  1237charge 0 multiplicity 1
 O         0.186791        -0.042093         0.123406
 C        -0.985364         0.519270         0.653006
 C        -1.117685         1.945733         0.989680
 C        -2.436586         1.161429         1.782464
 C        -1.253876         0.141168         2.127502
 C        -3.881676         1.621731         2.050847
 C        -4.410976         1.871892         0.543570
 O        -3.407612         1.171538        -0.357760
 C        -2.570506         0.399567         0.438784
 H         0.037582        -0.523653        -0.702358
 H        -0.443680         2.458169         1.729096
 H        -1.514790         2.643882         0.320856
 H        -0.467442         0.580889         2.711615
 H        -1.466252        -0.876356         2.469031
 H        -4.422921         0.697925         2.487449
 H        -3.994445         2.438213         2.826173
 H        -5.245867         1.301946         0.251676
 H        -4.612415         2.863353         0.215884
 H        -2.929032        -0.620600         0.549683
