19
Iteration:  4714
 O         0.081148         0.112614        -0.088415
 C        -1.010667         0.587592         0.707992
 C        -1.252424         2.092533         1.095134
 C        -2.376066         1.217944         1.791595
 C        -1.320934         0.209278         2.318750
 C        -3.807241         1.629071         1.977610
 C        -4.327085         1.727704         0.456280
 O        -3.373662         0.947759        -0.339905
 C        -2.441748         0.275596         0.485015
 H        -0.337999        -0.670178        -0.531016
 H        -0.595199         2.599988         1.822119
 H        -1.711260         2.734863         0.254564
 H        -0.566576         0.631217         2.910816
 H        -1.693118        -0.821370         2.435303
 H        -4.175315         0.723704         2.412543
 H        -3.950105         2.539105         2.624045
 H        -5.429283         1.479737         0.439982
 H        -4.224184         2.731122         0.093536
 H        -2.674173        -0.828533         0.538504
