19
Iteration:  4456
 O         0.201761         0.055331         0.008224
 C        -0.965980         0.583124         0.652989
 C        -1.327701         1.992044         0.951276
 C        -2.442365         1.097249         1.672350
 C        -1.253917         0.315292         2.265072
 C        -3.846748         1.588567         1.985053
 C        -4.281510         1.926570         0.596716
 O        -3.524035         0.901257        -0.334401
 C        -2.530894         0.188097         0.531353
 H         0.779207         0.809995        -0.072136
 H        -0.621301         2.462459         1.614962
 H        -1.775326         2.659625         0.128688
 H        -0.677244         0.954692         3.039662
 H        -1.276570        -0.750285         2.599074
 H        -4.240797         0.754494         2.598511
 H        -3.708576         2.513229         2.503235
 H        -5.378922         1.919757         0.153009
 H        -3.860808         2.907138         0.248862
 H        -2.778545        -0.882817         0.681091
