19
Iteration:  1744
 O         0.104764         0.009099        -0.102283
 C        -0.967769         0.497166         0.695388
 C        -1.297254         1.886260         1.068306
 C        -2.427021         1.154611         1.799805
 C        -1.260457         0.138448         2.230651
 C        -3.937088         1.580998         2.011325
 C        -4.165744         1.918960         0.461030
 O        -3.381533         1.140069        -0.287109
 C        -2.544955         0.316835         0.518228
 H         0.429149         0.706639        -0.686407
 H        -0.561791         2.347127         1.765649
 H        -1.716499         2.579298         0.366434
 H        -0.515309         0.362820         3.022115
 H        -1.728974        -0.947115         2.242672
 H        -4.560275         0.808783         2.489944
 H        -4.121021         2.495590         2.518640
 H        -5.220333         1.910680         0.178798
 H        -3.856597         3.025319         0.404167
 H        -2.991389        -0.642352         0.648201
