19
Iteration:   804
 O         0.055144         0.075955        -0.110220
 C        -1.004622         0.483769         0.742609
 C        -1.212711         1.999382         0.968000
 C        -2.410174         1.210934         1.801709
 C        -1.261380         0.233811         2.260556
 C        -3.880741         1.637916         1.965338
 C        -4.288398         1.903332         0.474775
 O        -3.401304         0.946584        -0.352459
 C        -2.509580         0.259127         0.617176
 H         0.854132        -0.169781         0.362968
 H        -0.533050         2.516282         1.634360
 H        -1.537738         2.717628         0.188194
 H        -0.594674         0.660837         2.979028
 H        -1.460973        -0.836580         2.575201
 H        -4.581247         0.854711         2.378855
 H        -4.133569         2.518165         2.584166
 H        -5.312248         1.624823         0.298727
 H        -4.131293         2.812713        -0.080158
 H        -2.700343        -0.842185         0.650832
