19
Iteration:  3032charge 0 multiplicity 1
 O         0.119164         0.052019        -0.165552
 C        -0.928834         0.546139         0.656069
 C        -1.316794         2.044223         1.027972
 C        -2.395191         1.164776         1.771930
 C        -1.284325         0.210083         2.254532
 C        -3.830969         1.700227         2.074391
 C        -4.292751         1.868189         0.565362
 O        -3.481709         0.879183        -0.332481
 C        -2.525322         0.261218         0.485829
 H         0.977074        -0.068670         0.275330
 H        -0.764264         2.626838         1.807550
 H        -1.620202         2.715237         0.230742
 H        -0.339760         0.521014         2.828757
 H        -1.672376        -0.752979         2.380970
 H        -4.415472         1.002262         2.726502
 H        -3.804007         2.744410         2.505500
 H        -5.315564         1.655691         0.446244
 H        -4.000496         2.862083         0.227768
 H        -2.837448        -0.792872         0.633439
