19
Iteration:   163charge 0 multiplicity 1
 O         0.086485        -0.043812         0.040120
 C        -1.077554         0.434625         0.725677
 C        -1.324188         2.027791         0.949946
 C        -2.394759         1.214230         1.775272
 C        -1.233764         0.233596         2.229665
 C        -3.817419         1.671405         2.047465
 C        -4.280536         1.742604         0.460281
 O        -3.289191         1.108089        -0.342841
 C        -2.535500         0.285989         0.521337
 H         0.119054         0.580951        -0.769358
 H        -0.549460         2.524249         1.485688
 H        -1.592959         2.596682         0.104988
 H        -0.379770         0.670205         2.734411
 H        -1.663665        -0.651481         2.614854
 H        -4.481459         0.896813         2.518936
 H        -3.940265         2.581701         2.613463
 H        -5.272071         1.259898         0.375555
 H        -4.414216         2.818235         0.100389
 H        -3.087992        -0.676689         0.690294
