19
Iteration:  4579
 O         0.047793         0.021480        -0.066683
 C        -0.982483         0.571063         0.691559
 C        -1.326214         2.078457         1.008694
 C        -2.411749         1.142377         1.761691
 C        -1.296181         0.244032         2.292902
 C        -3.706088         1.666913         1.971483
 C        -4.388138         1.556747         0.583304
 O        -3.336090         1.140042        -0.411303
 C        -2.500517         0.300435         0.509489
 H         0.892772         0.169501         0.348692
 H        -0.770242         2.789174         1.694838
 H        -1.745594         2.529658         0.131199
 H        -0.490463         0.642230         2.981153
 H        -1.561937        -0.765294         2.644960
 H        -4.509978         1.260158         2.612913
 H        -3.614281         2.756214         2.347815
 H        -5.024249         0.612993         0.667869
 H        -4.908578         2.432809         0.096583
 H        -2.795433        -0.772091         0.420700
