19
Iteration:  4396charge 0 multiplicity 1
 O         0.083439         0.044467        -0.096582
 C        -1.020693         0.487099         0.725800
 C        -1.297405         2.029830         1.049640
 C        -2.480403         1.155829         1.755613
 C        -1.168579         0.240712         2.263205
 C        -3.862517         1.719713         1.993712
 C        -4.271848         1.677246         0.433378
 O        -3.328275         1.031850        -0.285995
 C        -2.532998         0.263210         0.564345
 H        -0.074842         0.664855        -0.830312
 H        -0.538379         2.517558         1.766915
 H        -1.580446         2.729960         0.268123
 H        -0.462199         0.839696         2.827451
 H        -1.402747        -0.814925         2.597809
 H        -4.504703         1.185050         2.697110
 H        -3.908210         2.747017         2.473375
 H        -5.144624         1.032306         0.324050
 H        -4.453206         2.704696        -0.005175
 H        -2.873577        -0.760625         0.711246
