19
Iteration:  4931charge 0 multiplicity 1
 O         0.246608         0.062638         0.057920
 C        -0.939316         0.542361         0.668345
 C        -1.181011         1.977708         1.103519
 C        -2.396553         1.195803         1.701467
 C        -1.367809         0.201685         2.180403
 C        -3.742798         1.714047         2.061689
 C        -4.483269         1.666764         0.567751
 O        -3.544587         0.956453        -0.377610
 C        -2.503056         0.387429         0.389610
 H         0.686359         0.811295        -0.349777
 H        -0.543646         2.557547         1.697731
 H        -1.342610         2.589853         0.218799
 H        -0.587643         0.317160         2.864605
 H        -1.813720        -0.816489         2.546840
 H        -4.237816         1.087307         2.781397
 H        -3.648151         2.770842         2.411188
 H        -5.414604         1.119714         0.366865
 H        -4.668780         2.654741         0.095044
 H        -2.774598        -0.674494         0.545127
