19
Iteration:  1210charge 0 multiplicity 1
 O         0.059701         0.000360        -0.084490
 C        -0.980705         0.524622         0.769270
 C        -1.294820         2.021081         1.024836
 C        -2.438823         1.160909         1.819126
 C        -1.350355         0.201272         2.261825
 C        -3.782966         1.578128         2.003591
 C        -4.153308         1.826741         0.564159
 O        -3.349261         1.146137        -0.371804
 C        -2.520397         0.338044         0.401564
 H        -0.194549        -0.928934        -0.287038
 H        -0.762476         2.547273         1.771698
 H        -1.747172         2.702188         0.227927
 H        -0.589543         0.537582         3.034728
 H        -1.667122        -0.861847         2.371250
 H        -4.354681         0.795480         2.396431
 H        -3.899501         2.369018         2.693731
 H        -5.173641         1.405398         0.267361
 H        -4.221802         2.909375         0.300976
 H        -2.969867        -0.663332         0.524452
