19
Iteration:  1301charge 0 multiplicity 1
 O         0.025064         0.058506        -0.124891
 C        -0.980546         0.441410         0.711320
 C        -1.247766         1.951168         1.131071
 C        -2.364609         1.107013         1.818149
 C        -1.257118         0.057248         2.254517
 C        -3.777634         1.816955         1.931028
 C        -4.401099         1.694150         0.479691
 O        -3.290836         1.179880        -0.353131
 C        -2.592824         0.331982         0.502741
 H         0.840401         0.339758         0.268064
 H        -0.631789         2.503837         1.840279
 H        -1.696050         2.541221         0.403892
 H        -0.436538         0.380617         2.869289
 H        -1.527137        -1.036434         2.372373
 H        -4.534632         1.533578         2.618353
 H        -3.677894         2.897402         2.166381
 H        -5.377141         1.086991         0.425609
 H        -4.615414         2.707444         0.243746
 H        -3.107487        -0.611421         0.627348
