19
Iteration:   421
 O         0.079962         0.123978        -0.084059
 C        -0.991156         0.569121         0.712356
 C        -1.169930         1.932495         1.158276
 C        -2.386382         1.247525         1.787456
 C        -1.392293         0.102228         2.250276
 C        -3.779892         1.878549         1.957489
 C        -4.349321         1.672236         0.509094
 O        -3.362599         0.978966        -0.416168
 C        -2.525429         0.328859         0.492478
 H         0.122426        -0.875146        -0.180215
 H        -0.346340         2.312787         1.845632
 H        -1.223155         2.744043         0.455940
 H        -0.524651         0.207283         2.964876
 H        -1.941826        -0.857148         2.271574
 H        -4.289908         1.250126         2.762259
 H        -3.748648         2.913577         2.382496
 H        -5.271590         0.938585         0.543882
 H        -4.624006         2.598305         0.012928
 H        -2.972324        -0.684756         0.664807
