19
Iteration:  3188charge 0 multiplicity 1
 O         0.051557         0.018447        -0.092386
 C        -1.017071         0.495185         0.654124
 C        -1.266808         2.034775         0.945075
 C        -2.306100         1.293647         1.725877
 C        -1.366229         0.224502         2.287690
 C        -3.746345         1.731511         2.044684
 C        -4.374438         1.541869         0.584525
 O        -3.344530         1.109657        -0.339073
 C        -2.551476         0.312633         0.457518
 H         0.825871        -0.035543         0.470396
 H        -0.507813         2.559495         1.582610
 H        -1.761561         2.746510         0.262557
 H        -0.493721         0.417673         2.948680
 H        -1.586906        -0.794752         2.507949
 H        -4.160406         0.958126         2.735135
 H        -3.678091         2.801046         2.405889
 H        -5.141681         0.789562         0.723649
 H        -4.729435         2.508257         0.368809
 H        -3.016309        -0.647543         0.628016
