19
Iteration:   549
 O         0.128909         0.137026        -0.063063
 C        -1.084010         0.472183         0.692915
 C        -1.240579         2.012116         1.059743
 C        -2.448666         1.136568         1.804761
 C        -1.216048         0.049874         2.192133
 C        -3.828343         1.807028         1.943427
 C        -4.243312         1.952817         0.404835
 O        -3.468293         0.833338        -0.306472
 C        -2.554145         0.283836         0.616579
 H         0.844635         0.573067         0.358262
 H        -0.535176         2.419246         1.816252
 H        -1.561928         2.651161         0.287279
 H        -0.288630         0.380159         2.820787
 H        -1.600246        -0.955100         2.437179
 H        -4.560721         1.135685         2.398608
 H        -3.848903         2.671498         2.615972
 H        -5.305660         1.882032         0.123518
 H        -3.857559         2.795703        -0.181436
 H        -2.958409        -0.703591         0.796770
