19
Iteration:  4376charge 0 multiplicity 1
 O         0.022739         0.046789        -0.051401
 C        -0.962696         0.590848         0.738944
 C        -1.366942         1.979035         0.991957
 C        -2.332279         1.162719         1.822002
 C        -1.290707         0.259012         2.358778
 C        -3.751512         1.691751         2.001770
 C        -4.401116         1.632351         0.596967
 O        -3.230819         1.088957        -0.472881
 C        -2.489016         0.272962         0.479871
 H        -0.263599         0.059159        -0.965640
 H        -0.791446         2.642564         1.663243
 H        -1.757831         2.590624         0.152186
 H        -0.544631         0.551798         3.071943
 H        -1.796975        -0.818445         2.499797
 H        -4.349915         1.208186         2.764910
 H        -3.696369         2.770266         2.373350
 H        -5.352147         1.000818         0.571749
 H        -4.595504         2.469400        -0.104565
 H        -2.856665        -0.751328         0.614961
