19
Iteration:  3199charge 0 multiplicity 1
 O         0.037037        -0.110124        -0.074582
 C        -0.950315         0.564250         0.686478
 C        -1.223290         2.095159         0.904941
 C        -2.370715         1.216452         1.802861
 C        -1.285765         0.280476         2.219268
 C        -3.745304         1.652996         1.999065
 C        -4.367625         1.569765         0.640052
 O        -3.402523         1.157533        -0.345252
 C        -2.536613         0.383191         0.500193
 H         0.879420        -0.055822         0.404197
 H        -0.574742         2.648892         1.629085
 H        -1.566950         2.688892         0.034008
 H        -0.560569         0.528058         3.017813
 H        -1.822721        -0.621287         2.275342
 H        -4.326028         0.870876         2.561468
 H        -4.093841         2.537859         2.602286
 H        -5.115679         0.770999         0.554041
 H        -4.868199         2.334418         0.133356
 H        -2.823298        -0.646407         0.601656
