19
Iteration:  1718
 O         0.125952        -0.010143         0.122316
 C        -0.949722         0.575709         0.727010
 C        -1.330318         1.959506         1.128931
 C        -2.455178         1.024487         1.736938
 C        -1.277117         0.097184         2.095458
 C        -3.729617         1.647907         2.033861
 C        -4.272546         1.937270         0.573823
 O        -3.421990         1.145611        -0.463665
 C        -2.560118         0.314971         0.412886
 H         0.097169         0.084691        -0.851208
 H        -0.672418         2.456114         1.874085
 H        -1.833437         2.644200         0.413926
 H        -0.559034         0.576544         2.796921
 H        -1.353156        -0.986715         2.238383
 H        -4.487585         1.077794         2.551542
 H        -3.436520         2.586896         2.624456
 H        -5.260206         1.505619         0.708268
 H        -4.384220         2.921236         0.220917
 H        -2.953684        -0.761850         0.513865
