19
Iteration:  1687charge 0 multiplicity 1
 O         0.238997         0.054175         0.054736
 C        -0.970949         0.493041         0.683585
 C        -1.166749         1.947816         1.071853
 C        -2.420715         1.162981         1.723011
 C        -1.482185         0.051895         2.142404
 C        -3.820633         1.703681         2.034779
 C        -4.415191         1.827418         0.659775
 O        -3.371650         1.193378        -0.352500
 C        -2.452910         0.317964         0.383321
 H        -0.060671        -0.293173        -0.811946
 H        -0.371944         2.466839         1.676546
 H        -1.586005         2.538688         0.264988
 H        -0.602838         0.194495         2.835203
 H        -1.946258        -1.021689         2.276830
 H        -4.490841         1.071505         2.561254
 H        -3.744843         2.716605         2.425360
 H        -5.280903         1.156554         0.686380
 H        -4.705958         2.809369         0.239687
 H        -2.802677        -0.691357         0.366305
