19
Iteration:  4272charge 0 multiplicity 1
 O         0.054763         0.029526        -0.046372
 C        -1.009530         0.565768         0.667195
 C        -1.414433         1.988158         1.060638
 C        -2.395445         1.131539         1.823426
 C        -1.237865         0.198742         2.183623
 C        -3.766166         1.775511         1.993651
 C        -4.334723         1.638104         0.526424
 O        -3.310284         1.098294        -0.374294
 C        -2.538726         0.335969         0.509186
 H         0.790915        -0.131404         0.547425
 H        -0.645181         2.478986         1.661048
 H        -1.828525         2.575712         0.149117
 H        -0.314141         0.496533         2.876112
 H        -1.394384        -0.868198         2.424531
 H        -4.470925         1.220677         2.698787
 H        -3.602771         2.804412         2.269945
 H        -5.090977         0.858554         0.450061
 H        -4.634540         2.595690         0.048072
 H        -2.838686        -0.719707         0.566909
