19
Iteration:  4069charge 0 multiplicity 1
 O         0.051306         0.001314        -0.077885
 C        -0.947691         0.481255         0.680029
 C        -1.299377         2.042316         0.977106
 C        -2.426907         1.167249         1.808018
 C        -1.331462         0.224909         2.245217
 C        -3.723355         1.752639         2.022541
 C        -4.371767         1.587341         0.501765
 O        -3.225736         1.147547        -0.343032
 C        -2.569087         0.305623         0.588034
 H         0.256114         0.355204        -0.936575
 H        -0.620874         2.506785         1.736241
 H        -1.743234         2.864906         0.369165
 H        -0.651247         0.715951         2.999459
 H        -1.574652        -0.877346         2.137368
 H        -4.432726         1.180582         2.675476
 H        -3.795981         2.759445         2.532247
 H        -5.042293         0.617520         0.564692
 H        -4.998151         2.435478         0.152475
 H        -3.038010        -0.717799         0.767529
