19
Iteration:  2039
 O         0.057487        -0.001780        -0.010143
 C        -0.978255         0.468781         0.734585
 C        -1.352030         1.923207         0.867656
 C        -2.351424         1.246134         1.757499
 C        -1.124828         0.171874         2.188538
 C        -3.864953         1.598676         2.008467
 C        -4.313207         1.825277         0.554204
 O        -3.462157         1.086803        -0.276965
 C        -2.519306         0.336278         0.560879
 H         0.696527         0.747682        -0.232617
 H        -0.500057         2.461880         1.399335
 H        -1.639140         2.622409        -0.013781
 H        -0.370314         0.526866         2.959344
 H        -1.635684        -0.787645         2.393435
 H        -4.330444         0.679124         2.484068
 H        -4.047515         2.497958         2.562956
 H        -5.299101         1.768319         0.014582
 H        -3.939350         2.898948         0.430053
 H        -2.895084        -0.667488         0.674653
