19
Iteration:  4756charge 0 multiplicity 1
 O         0.180116         0.226151         0.074921
 C        -1.002261         0.548147         0.683232
 C        -1.366487         2.020840         0.888254
 C        -2.430313         1.125090         1.806160
 C        -1.210289         0.165529         2.247383
 C        -3.824228         1.581504         1.997382
 C        -4.205264         1.909353         0.532712
 O        -3.517126         0.957011        -0.343921
 C        -2.537293         0.218654         0.495957
 H         0.469709        -0.669625         0.259718
 H        -0.537462         2.506785         1.341847
 H        -1.738729         2.508848        -0.047515
 H        -0.367895         0.584287         2.693085
 H        -1.555360        -0.920212         2.487841
 H        -4.435716         0.790241         2.408864
 H        -4.045628         2.478823         2.650276
 H        -5.251925         1.806961         0.171046
 H        -3.963802         2.961033         0.268370
 H        -2.747822        -0.843661         0.398279
