19
Iteration:  1066
 O         0.079225         0.023833        -0.091724
 C        -1.003503         0.450435         0.699345
 C        -1.288234         2.088950         1.016043
 C        -2.359776         1.170913         1.757213
 C        -1.345964         0.222132         2.265100
 C        -3.851313         1.608216         2.013359
 C        -4.323914         1.797517         0.581518
 O        -3.275801         1.159089        -0.412094
 C        -2.510440         0.283322         0.485351
 H        -0.006027        -0.915214         0.274382
 H        -0.476187         2.506794         1.702685
 H        -1.540019         2.598303         0.134790
 H        -0.600752         0.506879         3.059270
 H        -1.919381        -0.733563         2.604333
 H        -4.317931         0.767071         2.501257
 H        -3.932301         2.421517         2.712692
 H        -5.298828         1.304922         0.416363
 H        -4.189780         2.853658         0.318970
 H        -2.847462        -0.727106         0.646221
