19
Iteration:  4696charge 0 multiplicity 1
 O         0.012470         0.119511        -0.039850
 C        -0.972410         0.583355         0.761501
 C        -1.315221         2.053325         1.045361
 C        -2.402339         1.162058         1.809809
 C        -1.214282         0.184615         2.192874
 C        -3.854277         1.633224         2.002252
 C        -4.293037         1.652082         0.468871
 O        -3.296492         1.014273        -0.423004
 C        -2.510630         0.372004         0.625523
 H        -0.378055        -0.404886        -0.772348
 H        -0.434539         2.497482         1.578265
 H        -1.540705         2.669241         0.197291
 H        -0.478785         0.332698         3.111836
 H        -1.433287        -0.847260         2.370844
 H        -4.661722         1.120091         2.614714
 H        -3.767639         2.682799         2.149775
 H        -5.171238         1.010854         0.403518
 H        -4.449168         2.723971         0.186489
 H        -2.866685        -0.650276         0.828589
