19
Iteration:  3739
 O         0.060833         0.111547        -0.117552
 C        -0.956010         0.582459         0.720608
 C        -1.304230         1.986662         1.139783
 C        -2.390373         1.162698         1.786676
 C        -1.317235         0.034843         2.180496
 C        -3.706360         1.889294         1.872558
 C        -4.371667         1.629361         0.573498
 O        -3.417289         0.953053        -0.296278
 C        -2.505171         0.317427         0.513665
 H         0.662314         0.802816        -0.480711
 H        -0.623150         2.661668         1.735338
 H        -1.675092         2.597404         0.331074
 H        -0.627825         0.339141         3.026722
 H        -1.647083        -1.041608         2.478499
 H        -4.227053         1.711744         2.841006
 H        -3.491460         2.978103         1.865980
 H        -5.077437         0.832353         0.707138
 H        -4.704596         2.578180         0.072105
 H        -2.753537        -0.775052         0.730596
