19
Iteration:  3590
 O         0.073140         0.253460        -0.076361
 C        -1.023407         0.527645         0.711435
 C        -1.352269         1.942357         1.035139
 C        -2.399906         1.092492         1.865728
 C        -1.175546         0.175694         2.308296
 C        -3.722606         1.772357         2.000778
 C        -4.168993         1.858103         0.414342
 O        -3.501698         0.825515        -0.317881
 C        -2.584380         0.236971         0.548235
 H        -0.217282         0.200172        -1.015553
 H        -0.601440         2.515143         1.578640
 H        -1.690568         2.491668         0.153327
 H        -0.261821         0.660501         2.807726
 H        -1.216813        -0.884434         2.363845
 H        -4.456517         1.077466         2.431456
 H        -3.793893         2.713759         2.517167
 H        -5.239011         1.601458         0.325074
 H        -4.189901         2.843344         0.014687
 H        -2.830025        -0.796764         0.668520
