19
Iteration:  1750charge 0 multiplicity 1
 O         0.077523         0.025709        -0.148321
 C        -0.937790         0.481651         0.723257
 C        -1.288292         1.904757         1.074502
 C        -2.420970         1.172498         1.836773
 C        -1.351258         0.141102         2.212571
 C        -3.912374         1.536943         1.972823
 C        -4.138717         1.954301         0.501272
 O        -3.360282         1.106467        -0.348122
 C        -2.559362         0.320965         0.582506
 H         0.442311         0.778011        -0.607573
 H        -0.533111         2.431614         1.691645
 H        -1.655258         2.614686         0.293855
 H        -0.613479         0.403510         2.965345
 H        -1.631814        -0.865747         2.415455
 H        -4.516517         0.745713         2.429806
 H        -4.054088         2.436158         2.672928
 H        -5.215788         1.893220         0.243098
 H        -3.822282         2.965932         0.356022
 H        -3.046938        -0.712283         0.771212
