19
Iteration:  4377charge 0 multiplicity 1
 O         0.021561         0.048413        -0.057564
 C        -0.960493         0.589668         0.740032
 C        -1.368615         1.966034         1.001280
 C        -2.330648         1.160069         1.824943
 C        -1.294076         0.266830         2.346863
 C        -3.761038         1.700435         1.999775
 C        -4.397211         1.635954         0.601465
 O        -3.224834         1.086134        -0.470674
 C        -2.489088         0.271547         0.488484
 H        -0.221671         0.083178        -0.980210
 H        -0.796114         2.615712         1.639302
 H        -1.750203         2.598065         0.139689
 H        -0.557002         0.574572         3.060193
 H        -1.760080        -0.821587         2.522175
 H        -4.366002         1.177546         2.738289
 H        -3.698957         2.767302         2.364219
 H        -5.379460         1.029308         0.558822
 H        -4.612028         2.461260        -0.102113
 H        -2.857651        -0.765447         0.614803
