19
Iteration:  1209
 O         0.052532         0.004772        -0.090842
 C        -0.979349         0.534770         0.771183
 C        -1.293852         2.015179         1.023406
 C        -2.431146         1.150177         1.818903
 C        -1.358760         0.197595         2.265654
 C        -3.786610         1.583651         2.010554
 C        -4.140231         1.832281         0.556411
 O        -3.350568         1.140591        -0.372320
 C        -2.517172         0.344774         0.405812
 H        -0.192115        -0.950008        -0.280518
 H        -0.753271         2.565245         1.796905
 H        -1.772857         2.676640         0.218466
 H        -0.595547         0.556230         3.033919
 H        -1.665560        -0.854891         2.381819
 H        -4.370932         0.770964         2.410474
 H        -3.915943         2.368063         2.708129
 H        -5.162617         1.370289         0.277072
 H        -4.225994         2.936304         0.264972
 H        -2.960826        -0.699584         0.509317
