19
Iteration:  2237
 O        -0.040716         0.031836        -0.238851
 C        -0.966498         0.509852         0.637801
 C        -1.342709         1.997324         1.078007
 C        -2.385805         1.170514         1.944890
 C        -1.220412         0.152936         2.301582
 C        -3.777926         1.941527         2.044587
 C        -4.343647         1.604782         0.417813
 O        -3.335273         0.985872        -0.348714
 C        -2.483647         0.313621         0.568187
 H         0.766111         0.537553        -0.209550
 H        -0.601698         2.530614         1.806589
 H        -1.747594         2.695214         0.335275
 H        -0.335418         0.375585         2.898991
 H        -1.523644        -0.786226         2.521285
 H        -4.650432         1.550014         2.635111
 H        -3.551169         2.978282         2.311732
 H        -5.005121         0.765134         0.712744
 H        -4.761553         2.492620        -0.129229
 H        -2.806613        -0.756088         0.732778
