19
Iteration:   378charge 0 multiplicity 1
 O         0.128758         0.084248        -0.079524
 C        -0.964868         0.466226         0.726532
 C        -1.353079         1.964257         1.026691
 C        -2.451430         1.108769         1.780302
 C        -1.353507         0.135976         2.284981
 C        -3.739802         1.899300         1.973164
 C        -4.322889         1.663771         0.573476
 O        -3.299485         1.196657        -0.397246
 C        -2.487028         0.231182         0.496804
 H        -0.039694        -0.898305        -0.031371
 H        -0.786708         2.611950         1.826114
 H        -1.714555         2.569569         0.200126
 H        -0.569946         0.515073         3.043700
 H        -1.632569        -0.946729         2.509311
 H        -4.532779         1.510096         2.689845
 H        -3.683192         2.987898         2.197178
 H        -5.043562         0.814436         0.555581
 H        -4.802941         2.487435         0.070086
 H        -2.858617        -0.812169         0.356512
