19
Iteration:  3867
 O         0.109328         0.260555        -0.063530
 C        -0.985040         0.525329         0.741821
 C        -1.398277         2.003175         0.899054
 C        -2.372187         1.108721         1.783253
 C        -1.187892         0.154858         2.331273
 C        -3.750708         1.666267         2.020033
 C        -4.215881         1.839050         0.530876
 O        -3.506928         1.007562        -0.344876
 C        -2.581606         0.155141         0.485281
 H         0.252775        -0.685636         0.130399
 H        -0.567630         2.663086         1.282718
 H        -1.732779         2.283773        -0.075520
 H        -0.387108         0.371433         2.977104
 H        -1.456631        -0.936949         2.517714
 H        -4.454499         1.070079         2.578438
 H        -3.704376         2.691984         2.463111
 H        -5.339470         1.840872         0.416662
 H        -4.097001         2.871122         0.222626
 H        -2.733591        -0.925707         0.657068
