19
Iteration:   118
 O         0.003950         0.023774        -0.096486
 C        -1.004133         0.513212         0.764699
 C        -1.143264         2.013779         1.150160
 C        -2.335862         1.256450         1.787032
 C        -1.265595         0.156289         2.247847
 C        -3.791541         1.840010         1.902695
 C        -4.379078         1.621119         0.514071
 O        -3.434597         1.017214        -0.424920
 C        -2.523165         0.338791         0.509977
 H         0.788213        -0.350824         0.408415
 H        -0.518850         2.505821         1.899323
 H        -1.463387         2.664784         0.351813
 H        -0.385042         0.645682         2.736431
 H        -1.604978        -0.815722         2.630848
 H        -4.395211         1.319862         2.725593
 H        -3.770976         2.870254         2.180927
 H        -5.130289         0.818658         0.609156
 H        -4.928636         2.483336        -0.025790
 H        -2.869905        -0.713661         0.435742
