19
Iteration:  2649
 O        -0.035249         0.019084        -0.083375
 C        -1.009069         0.518753         0.709196
 C        -1.332645         2.069271         0.880682
 C        -2.329139         1.251438         1.743191
 C        -1.253724         0.271086         2.300513
 C        -3.770968         1.570897         2.065681
 C        -4.254799         1.752359         0.606074
 O        -3.416084         0.979631        -0.350026
 C        -2.493858         0.236318         0.499512
 H         0.720073         0.621497        -0.057765
 H        -0.601635         2.820785         1.400110
 H        -1.789029         2.482687        -0.075554
 H        -0.466465         0.642995         2.919005
 H        -1.649347        -0.740602         2.445867
 H        -4.112735         0.849803         2.834016
 H        -3.780497         2.519462         2.580137
 H        -5.331174         1.698720         0.171891
 H        -4.086757         2.791743         0.299977
 H        -2.834478        -0.759386         0.891387
