19
Iteration:   308
 O         0.134117        -0.010678        -0.017389
 C        -0.968179         0.470849         0.691521
 C        -1.185084         2.070451         1.020952
 C        -2.403789         1.233178         1.772763
 C        -1.309941         0.264190         2.283082
 C        -3.833267         1.646622         2.011467
 C        -4.349215         1.760373         0.477127
 O        -3.379828         1.068346        -0.396084
 C        -2.555176         0.312346         0.525328
 H        -0.144231        -0.854866        -0.427667
 H        -0.477187         2.503936         1.699031
 H        -1.470604         2.619270         0.102114
 H        -0.616561         0.522390         3.043369
 H        -1.676404        -0.703841         2.534044
 H        -4.289541         0.827761         2.558028
 H        -4.088242         2.564379         2.644991
 H        -5.404039         1.376194         0.333751
 H        -4.287999         2.829397         0.161088
 H        -2.829247        -0.739981         0.713424
