19
Iteration:   662
 O         0.142754        -0.006721         0.047289
 C        -0.980991         0.490735         0.706325
 C        -1.233456         1.971767         1.066118
 C        -2.459457         1.183790         1.728968
 C        -1.316948         0.247317         2.292965
 C        -3.763784         1.764670         2.036559
 C        -4.357492         1.676264         0.535330
 O        -3.369180         1.086353        -0.455499
 C        -2.500896         0.317379         0.415006
 H        -0.197052        -0.096874        -0.872641
 H        -0.530648         2.610031         1.604782
 H        -1.575302         2.609067         0.162337
 H        -0.583835         0.665780         2.960296
 H        -1.693453        -0.757415         2.651947
 H        -4.448839         1.252637         2.819387
 H        -3.585674         2.758739         2.563338
 H        -5.277576         0.951148         0.760126
 H        -4.769210         2.594839         0.076818
 H        -2.828812        -0.727818         0.563780
