19
Iteration:  1855charge 0 multiplicity 1
 O         0.258399         0.082559        -0.027595
 C        -0.956769         0.427156         0.719545
 C        -1.276346         1.923725         1.036566
 C        -2.445386         1.212387         1.672650
 C        -1.434088         0.177817         2.239012
 C        -3.720781         1.687261         2.093082
 C        -4.371302         1.787604         0.696077
 O        -3.434927         1.206466        -0.426266
 C        -2.485220         0.250148         0.375101
 H        -0.006419        -0.755780        -0.478867
 H        -0.669779         2.300548         1.826760
 H        -1.403880         2.664157         0.180037
 H        -0.686750         0.504110         3.114509
 H        -2.102152        -0.768992         2.368196
 H        -4.123089         0.772992         2.576795
 H        -3.839724         2.618483         2.548490
 H        -5.414500         1.391401         0.662197
 H        -4.369691         2.844678         0.284025
 H        -2.750501        -0.820923         0.327791
