19
Iteration:  4207charge 0 multiplicity 1
 O        -0.033219         0.074031        -0.062013
 C        -0.963300         0.520415         0.779527
 C        -1.352763         2.069703         1.004493
 C        -2.379965         1.162538         1.759248
 C        -1.250477         0.201114         2.288915
 C        -3.815421         1.587656         1.950582
 C        -4.160510         1.842811         0.468517
 O        -3.409573         0.931456        -0.297909
 C        -2.526781         0.274145         0.544592
 H         0.455492         0.703778        -0.614892
 H        -0.558144         2.566513         1.551779
 H        -1.610377         2.665710         0.041649
 H        -0.451693         0.673026         2.954704
 H        -1.645986        -0.792188         2.324576
 H        -4.371890         0.772600         2.501941
 H        -4.057194         2.471201         2.548452
 H        -5.239407         1.813199         0.257060
 H        -3.706935         2.855529         0.237344
 H        -2.821738        -0.769246         0.547043
