19
Iteration:  2662
 O        -0.033980         0.009576        -0.162000
 C        -0.982223         0.621501         0.677816
 C        -1.316934         2.034274         0.914748
 C        -2.403693         1.163654         1.817081
 C        -1.259517         0.305723         2.231387
 C        -3.795493         1.656233         2.080107
 C        -4.197111         1.826539         0.508911
 O        -3.396893         0.891675        -0.252607
 C        -2.508960         0.226599         0.575583
 H         0.821823         0.491049        -0.138762
 H        -0.683951         2.689001         1.525731
 H        -1.736792         2.561448         0.016654
 H        -0.491083         0.642410         3.009501
 H        -1.486068        -0.690953         2.558505
 H        -4.426207         0.847725         2.309637
 H        -4.088358         2.534625         2.658638
 H        -5.290884         1.478037         0.484898
 H        -3.940107         2.857056         0.251470
 H        -2.700106        -0.894637         0.425144
