19
Iteration:  4033
 O         0.142229         0.021969         0.033015
 C        -0.906527         0.594709         0.749686
 C        -1.118433         2.012749         1.105788
 C        -2.357910         1.161997         1.696014
 C        -1.299690         0.128087         2.178981
 C        -3.703192         1.790840         1.956596
 C        -4.515282         1.652260         0.568874
 O        -3.564649         1.006571        -0.395415
 C        -2.479668         0.350934         0.486729
 H         0.094157         0.538276        -0.769747
 H        -0.502663         2.489016         1.831549
 H        -1.483964         2.678537         0.275003
 H        -0.683723         0.369131         3.075964
 H        -1.465890        -0.906264         2.255524
 H        -4.295484         1.272104         2.725154
 H        -3.568931         2.827199         2.196567
 H        -5.432369         1.004705         0.744704
 H        -4.908418         2.597891         0.060337
 H        -2.900381        -0.671985         0.627940
