19
Iteration:  3785charge 0 multiplicity 1
 O         0.027111        -0.048444        -0.164360
 C        -1.007466         0.475338         0.666386
 C        -1.327809         2.029819         0.978455
 C        -2.342633         1.196761         1.772756
 C        -1.269861         0.288496         2.316716
 C        -3.825622         1.657976         1.997600
 C        -4.350196         1.589147         0.580025
 O        -3.281402         1.158581        -0.317764
 C        -2.518186         0.339932         0.570161
 H         0.623425         0.687698        -0.294518
 H        -0.533550         2.478510         1.576172
 H        -1.675502         2.734483         0.204334
 H        -0.486378         0.655426         3.053930
 H        -1.539618        -0.727714         2.429125
 H        -4.479000         0.923200         2.530911
 H        -4.048974         2.619899         2.426351
 H        -5.186299         0.948722         0.393444
 H        -4.393299         2.634638         0.182336
 H        -2.986309        -0.691746         0.759851
