19
Iteration:  3741charge 0 multiplicity 1
 O         0.043209         0.116114        -0.119051
 C        -0.951467         0.574642         0.734732
 C        -1.304496         1.977050         1.131639
 C        -2.418644         1.167770         1.775529
 C        -1.295550         0.036978         2.201151
 C        -3.720956         1.889277         1.864458
 C        -4.354637         1.623428         0.588802
 O        -3.410613         0.960964        -0.301181
 C        -2.490103         0.311101         0.489131
 H         0.601244         0.825583        -0.443450
 H        -0.621999         2.601793         1.727309
 H        -1.686032         2.584060         0.305760
 H        -0.649465         0.349978         3.075211
 H        -1.595013        -0.971793         2.395106
 H        -4.206038         1.716804         2.842506
 H        -3.460964         2.938164         1.873478
 H        -5.089039         0.864647         0.756826
 H        -4.664201         2.594400         0.122117
 H        -2.800651        -0.748868         0.776449
