19
Iteration:   936charge 0 multiplicity 1
 O         0.106580        -0.115437         0.073200
 C        -1.000505         0.554856         0.711250
 C        -1.239849         2.006492         1.058380
 C        -2.422689         1.208535         1.838529
 C        -1.183330         0.179063         2.126634
 C        -3.898058         1.695034         1.991476
 C        -4.357106         1.645623         0.458683
 O        -3.387554         1.204147        -0.387186
 C        -2.472298         0.443777         0.543061
 H        -0.120882        -0.486667        -0.824878
 H        -0.409677         2.587718         1.575658
 H        -1.679974         2.569026         0.299974
 H        -0.377090         0.513508         2.821042
 H        -1.606573        -0.868769         2.344840
 H        -4.366991         0.853400         2.554154
 H        -3.935754         2.691455         2.523398
 H        -5.230648         0.984399         0.368345
 H        -4.740248         2.610444         0.112747
 H        -2.623677        -0.709121         0.653880
