19
Iteration:   270
 O         0.140450         0.108932        -0.106783
 C        -1.016274         0.569549         0.732635
 C        -1.398265         2.012187         1.015327
 C        -2.485761         1.028332         1.808944
 C        -1.217595         0.172539         2.341667
 C        -3.814403         1.791183         2.061653
 C        -4.192260         1.901071         0.414317
 O        -3.344746         0.962093        -0.369569
 C        -2.587487         0.195118         0.540965
 H         0.266831        -0.891247        -0.233366
 H        -0.565947         2.506097         1.646167
 H        -1.795963         2.575861         0.163660
 H        -0.484399         0.686831         3.068466
 H        -1.485818        -0.926912         2.432947
 H        -4.667522         1.273328         2.573178
 H        -3.661671         2.792893         2.340170
 H        -5.220806         1.650903         0.236869
 H        -4.029643         2.935280         0.059885
 H        -3.016796        -0.821441         0.484252
