19
Iteration:   373charge 0 multiplicity 1
 O         0.113432         0.048437        -0.058096
 C        -0.983565         0.497839         0.718063
 C        -1.346381         1.990954         1.041993
 C        -2.464393         1.107276         1.770430
 C        -1.373861         0.145993         2.274559
 C        -3.744135         1.877412         1.997491
 C        -4.276611         1.639275         0.579183
 O        -3.300359         1.171112        -0.385923
 C        -2.475810         0.273142         0.460762
 H         0.109538        -0.900574        -0.189634
 H        -0.787760         2.674316         1.595347
 H        -1.725457         2.606999         0.206037
 H        -0.791424         0.589697         3.023065
 H        -1.690331        -0.840570         2.494889
 H        -4.491369         1.468106         2.637404
 H        -3.481521         2.903388         2.355077
 H        -5.001238         0.793997         0.625201
 H        -4.744442         2.502225         0.046508
 H        -2.896922        -0.728079         0.335293
