19
Iteration:   101charge 0 multiplicity 1
 O         0.080425         0.059713        -0.056724
 C        -1.016115         0.534442         0.642852
 C        -1.225492         2.002866         1.105821
 C        -2.426942         1.223728         1.744167
 C        -1.233991         0.176265         2.164379
 C        -3.774591         1.918312         1.944689
 C        -4.441422         1.512388         0.486083
 O        -3.307703         1.061369        -0.318515
 C        -2.553086         0.342799         0.585540
 H         0.237079        -0.869308         0.383427
 H        -0.361579         2.082279         1.774612
 H        -1.317249         2.796292         0.330921
 H        -0.650242         0.315821         3.040697
 H        -1.492447        -0.915851         2.240006
 H        -4.377798         1.540233         2.717992
 H        -3.745415         3.032412         2.175658
 H        -5.251709         0.744041         0.510718
 H        -4.738594         2.331976        -0.078967
 H        -3.080436        -0.557301         0.955566
