19
Iteration:   903
 O        -0.011865        -0.051435        -0.045886
 C        -1.011216         0.535251         0.759242
 C        -1.274909         2.007715         1.044982
 C        -2.453820         1.152960         1.674015
 C        -1.341309         0.312543         2.295817
 C        -3.789141         1.625214         1.972491
 C        -4.203967         1.745313         0.536475
 O        -3.340058         1.099493        -0.388416
 C        -2.423860         0.259486         0.536469
 H        -0.009650         0.589846        -0.724161
 H        -0.598146         2.509448         1.786599
 H        -1.609302         2.577256         0.213097
 H        -0.720065         0.793386         3.058430
 H        -1.775301        -0.719210         2.599493
 H        -4.267353         0.871749         2.670507
 H        -3.708751         2.577845         2.563228
 H        -5.156180         1.265370         0.363098
 H        -4.217027         2.827102         0.333534
 H        -2.804538        -0.771305         0.385082
