19
Iteration:   455
 O         0.122245        -0.027813         0.009242
 C        -0.928568         0.542432         0.724289
 C        -1.269269         1.981233         1.012116
 C        -2.455078         1.143080         1.761510
 C        -1.286576         0.242789         2.293319
 C        -3.834958         1.683658         1.992499
 C        -4.295532         1.728139         0.565344
 O        -3.365947         1.165795        -0.405840
 C        -2.512525         0.365044         0.439697
 H        -0.499915        -0.639928        -0.463445
 H        -0.551078         2.477968         1.730627
 H        -1.580705         2.475586         0.105649
 H        -0.473962         0.522675         3.012416
 H        -1.569401        -0.820315         2.585705
 H        -4.442506         0.859143         2.506162
 H        -3.831806         2.605759         2.583176
 H        -5.212617         1.055104         0.399084
 H        -4.525893         2.687050         0.119741
 H        -2.891949        -0.699656         0.437327
