19
Iteration:  1511charge 0 multiplicity 1
 O         0.097330         0.162553        -0.137608
 C        -0.994007         0.442302         0.765708
 C        -1.311949         1.938584         1.002185
 C        -2.442573         1.024286         1.816018
 C        -1.261707         0.118191         2.287504
 C        -3.873805         1.524309         2.008728
 C        -4.096007         2.066091         0.480481
 O        -3.377764         1.126044        -0.329990
 C        -2.602956         0.297611         0.506188
 H         0.323294        -0.775815        -0.223795
 H        -0.674641         2.379464         1.744480
 H        -1.644304         2.594873         0.160632
 H        -0.541254         0.603025         3.043962
 H        -1.646160        -0.870017         2.633553
 H        -4.525630         0.770305         2.372757
 H        -4.012872         2.377314         2.694466
 H        -5.197909         1.864557         0.242551
 H        -3.930178         3.132391         0.323190
 H        -3.141171        -0.666538         0.221759
