19
Iteration:   476charge 0 multiplicity 1
 O         0.105759        -0.027690         0.108793
 C        -1.036083         0.446600         0.627912
 C        -1.304800         2.049822         0.962153
 C        -2.439713         1.232664         1.791746
 C        -1.198415         0.181201         2.196943
 C        -3.861048         1.562190         1.994480
 C        -4.370473         1.804141         0.462366
 O        -3.262626         1.215681        -0.335542
 C        -2.574605         0.271578         0.573107
 H         0.218098        -0.440922        -0.770219
 H        -0.442477         2.433565         1.583774
 H        -1.655885         2.596445         0.125763
 H        -0.327587         0.744865         2.569855
 H        -1.245458        -0.775079         2.685130
 H        -4.206779         0.792350         2.774811
 H        -3.949849         2.531159         2.533303
 H        -5.301088         1.275885         0.007997
 H        -4.414999         2.845311         0.203395
 H        -3.217599        -0.627440         0.752246
