19
Iteration:  3551charge 0 multiplicity 1
 O         0.129740        -0.027593        -0.026066
 C        -1.022311         0.632543         0.658780
 C        -1.418649         2.043375         0.946173
 C        -2.419878         1.141658         1.818379
 C        -1.198816         0.312247         2.185936
 C        -3.827171         1.568191         2.076047
 C        -4.125802         1.896902         0.505049
 O        -3.488256         0.886053        -0.262859
 C        -2.507019         0.274674         0.510951
 H         0.217503         0.377490        -0.907489
 H        -0.711215         2.693064         1.482920
 H        -1.869944         2.702709         0.169912
 H        -0.549929         0.770135         2.900636
 H        -1.338078        -0.767393         2.540536
 H        -4.555238         0.804796         2.424745
 H        -3.940976         2.468984         2.731653
 H        -5.214941         1.689072         0.455825
 H        -3.774983         2.872464         0.022867
 H        -2.768582        -0.834201         0.527863
