19
Iteration:  2510charge 0 multiplicity 1
 O        -0.069005        -0.042772        -0.103926
 C        -0.979959         0.572299         0.663331
 C        -1.285778         2.109229         1.004302
 C        -2.331714         1.218317         1.715683
 C        -1.277276         0.220217         2.139428
 C        -3.749866         1.749452         2.007022
 C        -4.299768         1.537645         0.605386
 O        -3.395667         1.049169        -0.275066
 C        -2.457668         0.328286         0.500260
 H         0.700590        -0.026915         0.465774
 H        -0.596672         2.354127         1.749960
 H        -1.549640         2.963206         0.372954
 H        -0.651695         0.820306         2.918587
 H        -1.570672        -0.819850         2.316376
 H        -4.317040         1.142820         2.722421
 H        -3.678418         2.824490         2.386007
 H        -5.169084         0.969998         0.854129
 H        -4.768181         2.428677         0.218147
 H        -2.860371        -0.629506         0.560093
