19
Iteration:  2897
 O         0.090909        -0.089722        -0.078433
 C        -0.943939         0.521719         0.700691
 C        -1.309365         2.052131         0.989465
 C        -2.406151         1.200368         1.809426
 C        -1.200850         0.227935         2.212709
 C        -3.745543         1.740531         2.046986
 C        -4.385237         1.698102         0.592269
 O        -3.494271         1.037530        -0.375252
 C        -2.503442         0.363016         0.465953
 H         0.848307         0.487989        -0.162106
 H        -0.648162         2.627078         1.627928
 H        -1.778511         2.530489         0.109332
 H        -0.358605         0.585749         2.790369
 H        -1.488893        -0.853550         2.512820
 H        -4.313905         1.074838         2.745127
 H        -3.731996         2.731722         2.515095
 H        -5.252548         0.978876         0.825368
 H        -4.496833         2.670288         0.048356
 H        -2.872683        -0.690651         0.568019
