19
Iteration:  1626
 O        -0.032327         0.008001        -0.198924
 C        -0.966216         0.580956         0.804100
 C        -1.239163         2.100874         1.123933
 C        -2.472343         1.083908         1.758200
 C        -1.382741         0.013839         2.228266
 C        -3.786012         1.684686         2.093036
 C        -4.258404         1.676152         0.462240
 O        -3.219955         1.309306        -0.344170
 C        -2.468030         0.320645         0.455322
 H        -0.264468        -0.912573         0.006500
 H        -0.641734         2.654214         1.881763
 H        -1.594758         2.597392         0.235185
 H        -0.718610         0.280285         3.025068
 H        -1.582720        -1.008129         2.298892
 H        -4.488415         1.231763         2.909346
 H        -3.698302         2.755358         2.375318
 H        -5.062319         0.937056         0.305990
 H        -4.740701         2.665935         0.145506
 H        -2.765960        -0.839536         0.533807
