19
Iteration:   133charge 0 multiplicity 1
 O        -0.015968        -0.061909        -0.118931
 C        -0.905485         0.528046         0.750609
 C        -1.238699         2.054424         1.068270
 C        -2.389233         1.172359         1.740443
 C        -1.360654         0.199791         2.388456
 C        -3.716800         1.764268         2.002033
 C        -4.418333         1.626728         0.490868
 O        -3.405963         1.045000        -0.391545
 C        -2.419937         0.370227         0.426120
 H         0.822843         0.309365         0.099444
 H        -0.525673         2.646888         1.626737
 H        -1.466448         2.654951         0.176425
 H        -0.751405         0.602204         3.150557
 H        -1.820015        -0.766554         2.526647
 H        -4.311351         1.245667         2.692682
 H        -3.600189         2.844284         2.251289
 H        -5.389854         1.112326         0.546298
 H        -4.574412         2.620581         0.160792
 H        -2.723402        -0.638835         0.663442
