19
Iteration:   343charge 0 multiplicity 1
 O         0.091927        -0.043060         0.058940
 C        -0.964704         0.535966         0.746784
 C        -1.135915         2.026427         1.039061
 C        -2.335827         1.323673         1.749177
 C        -1.273273         0.180820         2.219646
 C        -3.853263         1.700296         1.942852
 C        -4.427094         1.635597         0.555324
 O        -3.391847         1.146987        -0.413779
 C        -2.534354         0.311250         0.455109
 H        -0.010778        -0.849764        -0.486963
 H        -0.553813         2.580719         1.804755
 H        -1.340708         2.718870         0.184131
 H        -0.532396         0.543579         2.957811
 H        -1.731333        -0.773308         2.453350
 H        -4.268571         0.845443         2.527337
 H        -3.931681         2.648924         2.553858
 H        -5.420971         1.072083         0.511157
 H        -4.620885         2.667180         0.327856
 H        -2.968362        -0.719308         0.483347
