19
Iteration:  4735
 O         0.169850         0.160299        -0.099462
 C        -0.875344         0.526889         0.736064
 C        -1.245183         1.990896         1.049108
 C        -2.435090         1.120704         1.704306
 C        -1.281002         0.323978         2.299611
 C        -3.874877         1.541943         1.999383
 C        -4.254947         1.865851         0.555324
 O        -3.488350         0.915493        -0.369946
 C        -2.539349         0.302732         0.475905
 H         0.192138        -0.815384        -0.172471
 H        -0.690810         2.495601         1.839024
 H        -1.493827         2.648256         0.156410
 H        -0.836661         0.915133         3.005365
 H        -1.696338        -0.691493         2.534986
 H        -4.412022         0.722706         2.439036
 H        -3.986591         2.483031         2.630808
 H        -5.296568         1.622631         0.232734
 H        -4.107539         2.934308         0.327833
 H        -2.978440        -0.644789         0.809927
