19
Iteration:  1047
 O        -0.037658         0.018778        -0.125250
 C        -0.984365         0.551096         0.752833
 C        -1.227811         1.953629         1.128504
 C        -2.365670         1.165283         1.782635
 C        -1.311362         0.191097         2.261747
 C        -3.783024         1.684508         2.036918
 C        -4.319584         1.706895         0.402739
 O        -3.311080         1.140875        -0.355626
 C        -2.508439         0.375523         0.458464
 H         0.343486        -0.867732         0.023926
 H        -0.662590         2.429133         1.902218
 H        -1.611857         2.657514         0.375014
 H        -0.643119         0.709885         3.028759
 H        -1.549459        -0.871526         2.467379
 H        -4.413436         1.027152         2.664821
 H        -3.773140         2.755893         2.443983
 H        -5.214068         1.059226         0.387499
 H        -4.532369         2.675894         0.014119
 H        -2.836135        -0.700811         0.628642
