19
Iteration:  3317charge 0 multiplicity 1
 O         0.049711         0.096377        -0.103418
 C        -0.938740         0.583642         0.682836
 C        -1.313059         2.050889         1.027680
 C        -2.425858         1.075911         1.808511
 C        -1.245364         0.143191         2.221892
 C        -3.809915         1.775835         1.993662
 C        -4.124019         1.842473         0.475780
 O        -3.613261         0.761291        -0.240591
 C        -2.456540         0.289043         0.486374
 H         0.623132         0.901544        -0.197274
 H        -0.569066         2.606819         1.607443
 H        -1.884929         2.708974         0.397821
 H        -0.420270         0.660774         2.875740
 H        -1.257803        -0.953496         2.347359
 H        -4.542028         1.261832         2.652109
 H        -3.836648         2.779292         2.464020
 H        -5.233239         1.961096         0.271095
 H        -3.849750         2.938441         0.065796
 H        -2.737705        -0.781392         0.794318
