19
Iteration:  2564
 O        -0.055410         0.027881        -0.191921
 C        -1.039183         0.522306         0.689077
 C        -1.165266         1.981276         1.024547
 C        -2.353249         1.218984         1.790903
 C        -1.371698         0.234556         2.240144
 C        -3.724477         1.872260         1.994964
 C        -4.413059         1.398682         0.660755
 O        -3.256159         1.099436        -0.334760
 C        -2.527076         0.331994         0.505474
 H         0.540332         0.780072        -0.196240
 H        -0.522357         2.414054         1.729470
 H        -1.381298         2.687482         0.194453
 H        -0.562980         0.625326         3.056346
 H        -1.863576        -0.724285         2.530522
 H        -4.241085         1.512597         2.864506
 H        -3.553581         2.954531         1.896318
 H        -4.954266         0.461728         0.902264
 H        -4.937843         2.219528         0.208126
 H        -2.888825        -0.733133         0.500276
