19
Iteration:  1724charge 0 multiplicity 1
 O         0.113038        -0.010980         0.093572
 C        -0.968269         0.546616         0.724271
 C        -1.315016         2.006237         1.110692
 C        -2.444754         1.028084         1.775949
 C        -1.242616         0.054332         2.104109
 C        -3.813383         1.677898         2.000194
 C        -4.287705         1.965782         0.583049
 O        -3.389950         1.132975        -0.418420
 C        -2.555983         0.276948         0.414985
 H         0.179654         0.241840        -0.815651
 H        -0.631462         2.481380         1.802724
 H        -1.664298         2.714167         0.335207
 H        -0.478615         0.596848         2.672690
 H        -1.273806        -1.002865         2.411047
 H        -4.563082         1.044181         2.556727
 H        -3.613557         2.446449         2.730018
 H        -5.348387         1.568655         0.589571
 H        -4.303849         3.017864         0.144549
 H        -2.816421        -0.776550         0.350586
