19
Iteration:  4213charge 0 multiplicity 1
 O        -0.048111         0.060440        -0.082685
 C        -0.991600         0.548745         0.724814
 C        -1.317150         2.103943         1.047967
 C        -2.309888         1.228394         1.726334
 C        -1.316124         0.222685         2.311013
 C        -3.807194         1.586748         1.966169
 C        -4.161631         1.838927         0.500007
 O        -3.365389         0.894211        -0.311061
 C        -2.555269         0.235794         0.540775
 H         0.483312         0.740704        -0.584314
 H        -0.493013         2.624398         1.588271
 H        -1.549588         2.673414         0.193525
 H        -0.607627         0.514555         3.056551
 H        -1.755988        -0.840008         2.288911
 H        -4.251459         0.704722         2.411264
 H        -4.123252         2.337787         2.740664
 H        -5.210476         1.752834         0.174557
 H        -3.924294         2.818478         0.101038
 H        -2.925609        -0.833130         0.663403
