19
Iteration:  1574charge 0 multiplicity 1
 O         0.216757         0.130647        -0.011926
 C        -0.959143         0.445464         0.735952
 C        -1.133427         1.936809         1.088678
 C        -2.390792         1.127902         1.713824
 C        -1.365173         0.030264         2.189893
 C        -3.785992         1.681906         2.013766
 C        -4.460763         1.927934         0.637175
 O        -3.454506         1.088732        -0.388654
 C        -2.524383         0.378858         0.367812
 H         0.048334        -0.757872        -0.309099
 H        -0.527416         2.253322         1.938085
 H        -1.455909         2.710529         0.352490
 H        -0.701197         0.223456         3.115979
 H        -1.935843        -0.921649         2.273045
 H        -4.447188         1.028136         2.620377
 H        -3.730688         2.722292         2.415791
 H        -5.490230         1.602522         0.478896
 H        -4.326821         2.903789         0.247875
 H        -2.664461        -0.659510         0.442804
