19
Iteration:  4820
 O         0.158686         0.228134        -0.067147
 C        -0.960071         0.528825         0.752773
 C        -1.215702         2.008721         1.097761
 C        -2.382454         1.195375         1.728079
 C        -1.319605         0.187624         2.224073
 C        -3.777211         1.642588         1.924822
 C        -4.334195         1.811178         0.465367
 O        -3.479255         0.912787        -0.345442
 C        -2.539965         0.264282         0.538900
 H         0.039986        -0.722949        -0.330237
 H        -0.548937         2.332821         1.848937
 H        -1.450938         2.714863         0.277826
 H        -0.607204         0.584691         2.935423
 H        -1.664268        -0.847173         2.656666
 H        -4.189283         0.825801         2.536094
 H        -4.007148         2.469403         2.625167
 H        -5.375732         1.510926         0.335832
 H        -4.351174         2.932203         0.248852
 H        -2.840143        -0.754493         0.814929
