19
Iteration:  1298charge 0 multiplicity 1
 O         0.026073         0.047710        -0.096209
 C        -0.969637         0.466438         0.701095
 C        -1.244003         1.948589         1.122040
 C        -2.372884         1.115263         1.816331
 C        -1.262743         0.054972         2.246091
 C        -3.790763         1.827464         1.951916
 C        -4.354321         1.688949         0.488188
 O        -3.321856         1.182546        -0.370310
 C        -2.601748         0.310895         0.484127
 H         0.905067         0.418195         0.206159
 H        -0.629296         2.454893         1.827863
 H        -1.720780         2.666521         0.378399
 H        -0.454132         0.372157         2.923830
 H        -1.567119        -1.006901         2.380795
 H        -4.500565         1.442277         2.629925
 H        -3.634099         2.880716         2.080918
 H        -5.278571         1.047215         0.462529
 H        -4.585759         2.765818         0.387459
 H        -3.125869        -0.719526         0.598033
