19
Iteration:  1625
 O        -0.031982         0.013431        -0.196057
 C        -0.969539         0.575140         0.803355
 C        -1.244890         2.110282         1.124309
 C        -2.463559         1.080810         1.764744
 C        -1.383542         0.014158         2.231219
 C        -3.792461         1.689549         2.091816
 C        -4.262110         1.681674         0.462769
 O        -3.219074         1.310668        -0.346953
 C        -2.465547         0.309617         0.450859
 H        -0.232675        -0.948106        -0.010725
 H        -0.633185         2.684721         1.867999
 H        -1.590418         2.553343         0.232572
 H        -0.683507         0.256075         2.981687
 H        -1.628000        -1.033229         2.307697
 H        -4.459203         1.221199         2.912478
 H        -3.662113         2.737547         2.368937
 H        -5.059170         0.925925         0.283546
 H        -4.759656         2.694429         0.158335
 H        -2.765383        -0.839987         0.566177
