19
Iteration:  2098charge 0 multiplicity 1
 O         0.008529         0.225576        -0.161469
 C        -0.989388         0.560746         0.717953
 C        -1.291439         2.000310         1.059518
 C        -2.391473         1.143861         1.861086
 C        -1.203858         0.132451         2.233256
 C        -3.789987         1.761334         1.960175
 C        -4.212080         1.866165         0.467095
 O        -3.448119         0.811556        -0.347315
 C        -2.530026         0.293700         0.633541
 H        -0.072497        -0.728027        -0.346250
 H        -0.587362         2.512404         1.710544
 H        -1.585360         2.468327         0.164134
 H        -0.367253         0.448502         2.984786
 H        -1.535636        -0.945886         2.445394
 H        -4.486158         1.103862         2.411327
 H        -3.778663         2.709121         2.524950
 H        -5.251815         1.616692         0.382061
 H        -3.980427         2.854517         0.025723
 H        -2.901685        -0.775543         0.780429
