19
Iteration:  1967
 O         0.066069         0.115122        -0.132942
 C        -1.036671         0.569482         0.647405
 C        -1.220658         1.962892         1.102298
 C        -2.374497         1.187927         1.799604
 C        -1.261932         0.107833         2.187703
 C        -3.758994         1.797668         2.031784
 C        -4.340494         1.701888         0.488559
 O        -3.364712         1.065113        -0.361390
 C        -2.597487         0.292863         0.579851
 H         0.331726        -0.771454         0.252577
 H        -0.555676         2.282213         1.897682
 H        -1.443125         2.689313         0.397004
 H        -0.444977         0.334404         2.920698
 H        -1.602159        -0.905651         2.109497
 H        -4.267859         1.192175         2.765145
 H        -3.749635         2.870992         2.316299
 H        -5.251294         1.095849         0.660280
 H        -4.596472         2.569450        -0.100038
 H        -3.030220        -0.720262         0.771568
