19
Iteration:  4344charge 0 multiplicity 1
 O         0.176635        -0.001103         0.028414
 C        -0.952615         0.572561         0.647890
 C        -1.189488         1.989264         1.062795
 C        -2.422550         1.260067         1.748638
 C        -1.272003         0.268088         2.141738
 C        -3.832597         1.718727         1.976977
 C        -4.495147         1.559919         0.587935
 O        -3.350297         1.090136        -0.349899
 C        -2.496307         0.390918         0.483753
 H        -0.275097        -0.763600        -0.411136
 H        -0.582387         2.394571         1.875937
 H        -1.504966         2.686008         0.261812
 H        -0.501689         0.514102         2.869423
 H        -1.705315        -0.807863         2.308681
 H        -4.330279         1.093877         2.698495
 H        -3.967900         2.768564         2.381015
 H        -5.200758         0.688684         0.732907
 H        -4.811588         2.501446         0.073643
 H        -2.879775        -0.647287         0.690261
