19
Iteration:   823charge 0 multiplicity 1
 O         0.085935         0.079368        -0.158896
 C        -0.904891         0.598955         0.784310
 C        -1.338867         1.999990         1.070072
 C        -2.390515         1.117957         1.696919
 C        -1.408702         0.275749         2.356596
 C        -3.749141         1.672082         1.964831
 C        -4.142880         1.866779         0.496100
 O        -3.575434         0.859995        -0.329496
 C        -2.458652         0.239151         0.441036
 H         0.910769        -0.180921         0.175123
 H        -0.790971         2.578045         1.808816
 H        -1.469943         2.598215         0.069382
 H        -0.727032         0.725058         3.166098
 H        -1.771318        -0.769737         2.745321
 H        -4.312070         0.936712         2.591901
 H        -3.762740         2.615423         2.470432
 H        -5.223846         1.970037         0.304320
 H        -3.778455         2.910575         0.179690
 H        -3.003031        -0.711667         0.711116
