19
Iteration:  1055
 O         0.007527         0.001181        -0.116220
 C        -0.998926         0.525718         0.726895
 C        -1.288669         2.025203         1.077441
 C        -2.441674         1.212313         1.713402
 C        -1.346799         0.179422         2.328043
 C        -3.774147         1.637461         1.970671
 C        -4.238153         1.691722         0.546732
 O        -3.301920         1.149002        -0.357214
 C        -2.503597         0.358881         0.476204
 H         0.310471        -0.903721         0.003341
 H        -0.522612         2.474663         1.805645
 H        -1.467257         2.737796         0.327140
 H        -0.543146         0.620215         2.974031
 H        -1.498095        -0.950897         2.503661
 H        -4.309590         0.923490         2.564378
 H        -3.953059         2.646792         2.292214
 H        -5.253044         1.281442         0.364365
 H        -4.432773         2.755287         0.301234
 H        -2.993362        -0.592174         0.496952
