19
Iteration:  2990
 O         0.054890         0.243269        -0.201355
 C        -1.046985         0.488747         0.749292
 C        -1.377737         2.020280         1.087938
 C        -2.363008         1.195328         1.816420
 C        -1.234699         0.160663         2.238377
 C        -3.711046         1.741108         2.031698
 C        -4.223876         1.851780         0.485634
 O        -3.466136         0.860181        -0.404915
 C        -2.568226         0.163570         0.556664
 H         0.573085        -0.495894         0.239646
 H        -0.480906         2.442587         1.602985
 H        -1.736467         2.573580         0.214234
 H        -0.300403         0.450169         2.900344
 H        -1.645112        -0.814529         2.508303
 H        -4.422033         1.187725         2.709998
 H        -3.593455         2.769087         2.546192
 H        -5.258067         1.696922         0.330958
 H        -3.939321         2.879292         0.236605
 H        -2.796027        -0.844063         0.943264
