19
Iteration:  2704
 O        -0.100062         0.155613        -0.208112
 C        -1.051530         0.607027         0.744774
 C        -1.339779         1.999432         1.018077
 C        -2.384252         1.147240         1.848036
 C        -1.139227         0.228492         2.255580
 C        -3.802284         1.765309         2.017079
 C        -4.091975         1.835369         0.443871
 O        -3.488049         0.746172        -0.301206
 C        -2.512920         0.230283         0.586002
 H         0.813464         0.219456         0.061770
 H        -0.513086         2.530681         1.641515
 H        -1.580229         2.781287         0.214099
 H        -0.482442         0.800000         2.899784
 H        -1.339043        -0.824069         2.425163
 H        -4.455666         0.958198         2.451774
 H        -3.800477         2.708563         2.588390
 H        -5.240138         1.593957         0.468764
 H        -3.865026         2.855102        -0.007988
 H        -2.754844        -0.861244         0.577126
