19
Iteration:  1597charge 0 multiplicity 1
 O         0.137526         0.150454        -0.087053
 C        -1.055072         0.473105         0.703425
 C        -1.173003         1.854204         1.137266
 C        -2.427792         1.153181         1.775184
 C        -1.345549         0.052617         2.191225
 C        -3.781450         1.716797         2.021861
 C        -4.272765         1.764847         0.498898
 O        -3.354681         1.242467        -0.373228
 C        -2.615636         0.348047         0.481771
 H        -0.010645        -0.844155        -0.159005
 H        -0.422565         2.072029         1.878193
 H        -1.433551         2.672229         0.399182
 H        -0.630054         0.587058         2.922640
 H        -1.498603        -1.041150         2.420484
 H        -4.296124         0.947479         2.573409
 H        -3.926186         2.736700         2.434001
 H        -5.141925         1.082973         0.430162
 H        -4.588633         2.722644         0.212480
 H        -2.995210        -0.603393         0.667248
