19
Iteration:    10charge 0 multiplicity 1
 O         0.008226        -0.076805        -0.049514
 C        -0.971205         0.541455         0.797244
 C        -1.295986         2.092346         0.981653
 C        -2.363329         1.225758         1.800728
 C        -1.189983         0.222663         2.224052
 C        -3.792733         1.754351         1.990360
 C        -4.354770         1.681420         0.433267
 O        -3.391122         0.992951        -0.360225
 C        -2.593955         0.335039         0.572979
 H         0.853801         0.388593         0.040611
 H        -0.625662         2.799765         1.373954
 H        -1.489903         2.293716        -0.035834
 H        -0.370286         0.489480         2.880344
 H        -1.430226        -0.769885         2.393312
 H        -4.254022         0.924530         2.623128
 H        -3.813472         2.610910         2.609143
 H        -5.378370         1.302502         0.458815
 H        -4.324539         2.745922        -0.040919
 H        -2.782473        -0.726765         0.785329
