19
Iteration:   911
 O         0.007922        -0.099749        -0.031284
 C        -0.993771         0.553348         0.766106
 C        -1.291223         2.082007         1.092044
 C        -2.408352         1.159926         1.665503
 C        -1.254074         0.282009         2.298873
 C        -3.794124         1.640768         1.983443
 C        -4.292862         1.704851         0.562008
 O        -3.280554         1.137382        -0.403824
 C        -2.541804         0.258109         0.452169
 H        -0.002339         0.224798        -0.925250
 H        -0.626104         2.556009         1.817222
 H        -1.618953         2.783212         0.227269
 H        -0.746929         0.739507         3.165050
 H        -1.798973        -0.743321         2.558561
 H        -4.200298         0.809417         2.568701
 H        -3.798997         2.586881         2.453630
 H        -5.256262         1.226451         0.317174
 H        -4.344560         2.794924         0.237258
 H        -2.802190        -0.797774         0.834279
