19
Iteration:  2840charge 0 multiplicity 1
 O         0.033849         0.112150        -0.222422
 C        -0.973769         0.519915         0.686517
 C        -1.205874         2.001270         1.028619
 C        -2.377467         1.264194         1.799148
 C        -1.277325         0.154959         2.337477
 C        -3.772842         1.884338         2.055129
 C        -4.413651         1.431466         0.601964
 O        -3.317744         1.064555        -0.420130
 C        -2.550333         0.354769         0.519685
 H         0.299567        -0.832745        -0.005430
 H        -0.487679         2.566076         1.620443
 H        -1.539009         2.689697         0.286512
 H        -0.559463         0.283499         3.111891
 H        -1.683588        -0.889547         2.333190
 H        -4.167956         1.555119         2.959820
 H        -3.726292         2.965007         1.994086
 H        -5.326260         0.745212         0.732022
 H        -4.876081         2.278946         0.108225
 H        -3.009034        -0.553300         0.922751
