19
Iteration:  2635charge 0 multiplicity 1
 O         0.067906        -0.030774        -0.059998
 C        -0.999563         0.482351         0.719137
 C        -1.352365         2.020611         0.878852
 C        -2.357062         1.220224         1.714395
 C        -1.221177         0.290924         2.229805
 C        -3.705356         1.600680         2.054458
 C        -4.340439         1.737833         0.616312
 O        -3.423622         0.995027        -0.371716
 C        -2.560266         0.386839         0.539836
 H         0.782151         0.627695         0.013508
 H        -0.466066         2.460306         1.477729
 H        -1.669691         2.630900         0.033849
 H        -0.581309         0.823550         2.886558
 H        -1.519676        -0.691536         2.691714
 H        -4.326847         0.730835         2.482623
 H        -3.929392         2.545598         2.578303
 H        -5.272249         1.243162         0.790635
 H        -4.333586         2.846235         0.404723
 H        -3.036586        -0.568279         0.642928
