19
Iteration:  3966
 O         0.125776        -0.042069        -0.043111
 C        -0.950789         0.471994         0.743877
 C        -1.362376         1.968179         0.910547
 C        -2.429681         1.165804         1.743629
 C        -1.253120         0.354049         2.260764
 C        -3.835900         1.574433         2.044792
 C        -4.303686         1.769806         0.594172
 O        -3.358954         1.149359        -0.361520
 C        -2.525269         0.274367         0.501732
 H         0.268037         0.460443        -0.884137
 H        -0.637742         2.597657         1.487554
 H        -1.692630         2.469785         0.008861
 H        -0.547572         0.819438         2.918973
 H        -1.426290        -0.631620         2.712306
 H        -4.251146         0.690631         2.526732
 H        -3.933798         2.423948         2.717339
 H        -5.357514         1.320109         0.404699
 H        -4.333188         2.900490         0.365239
 H        -2.901813        -0.756425         0.758426
