19
Iteration:  1720charge 0 multiplicity 1
 O         0.118292        -0.010285         0.116075
 C        -0.950699         0.569014         0.734685
 C        -1.325392         1.975478         1.117867
 C        -2.453633         1.028040         1.755122
 C        -1.267889         0.086294         2.088752
 C        -3.761293         1.655302         2.019866
 C        -4.279919         1.949361         0.579293
 O        -3.409962         1.141034        -0.453576
 C        -2.559828         0.295196         0.414802
 H         0.135493         0.133327        -0.878661
 H        -0.636997         2.477711         1.869164
 H        -1.777107         2.648482         0.421115
 H        -0.521611         0.609783         2.725259
 H        -1.311683        -1.065460         2.320647
 H        -4.505248         1.093190         2.540976
 H        -3.472928         2.501925         2.660547
 H        -5.264551         1.539288         0.711918
 H        -4.372138         2.965671         0.177598
 H        -2.899213        -0.744137         0.463877
