19
Iteration:  3847
 O         0.139863         0.045306        -0.093824
 C        -0.951269         0.492623         0.663234
 C        -1.328293         2.046888         0.983915
 C        -2.419093         1.117642         1.739642
 C        -1.244075         0.284830         2.141436
 C        -3.844634         1.634458         2.062395
 C        -4.299538         1.846548         0.565852
 O        -3.444658         0.957347        -0.289349
 C        -2.524464         0.340950         0.518441
 H         0.633532        -0.466810         0.549040
 H        -0.600277         2.609942         1.634882
 H        -1.677745         2.645791         0.152622
 H        -0.527510         0.711249         2.847878
 H        -1.340668        -0.787409         2.478906
 H        -4.445451         0.783717         2.406189
 H        -3.945889         2.470716         2.772669
 H        -5.338804         1.621865         0.289799
 H        -4.242320         2.878447         0.313316
 H        -2.781030        -0.720254         0.714799
