19
Iteration:  3704charge 0 multiplicity 1
 O         0.102683         0.032529         0.008354
 C        -0.951514         0.517853         0.708582
 C        -1.157326         1.974130         1.068483
 C        -2.363299         1.242297         1.681666
 C        -1.261606         0.185217         2.157137
 C        -3.790711         1.759237         2.023845
 C        -4.420221         1.606739         0.632583
 O        -3.462258         1.036427        -0.400801
 C        -2.577295         0.359377         0.486924
 H         0.627445         0.717532        -0.465198
 H        -0.397145         2.314229         1.823053
 H        -1.320751         2.579407         0.169686
 H        -0.586558         0.765918         2.767721
 H        -1.578503        -0.892807         2.541241
 H        -4.248991         1.156757         2.816906
 H        -3.890031         2.857512         2.228171
 H        -5.227637         0.859115         0.601186
 H        -4.957715         2.452208         0.226838
 H        -2.881970        -0.695997         0.593105
