19
Iteration:  4352
 O         0.097046        -0.000021         0.022785
 C        -0.926196         0.574185         0.721978
 C        -1.264228         2.057016         1.048505
 C        -2.380800         1.230263         1.741736
 C        -1.341858         0.212508         2.142105
 C        -3.786425         1.731261         1.973071
 C        -4.376869         1.523949         0.587879
 O        -3.371012         1.104582        -0.345979
 C        -2.482165         0.377993         0.491550
 H        -0.131044        -0.678754        -0.627650
 H        -0.494412         2.617400         1.702520
 H        -1.528279         2.626078         0.203791
 H        -0.678594         0.757868         2.855588
 H        -1.564662        -0.864389         2.360335
 H        -4.353844         1.060053         2.640427
 H        -3.892938         2.739308         2.449902
 H        -5.206425         0.805695         0.635932
 H        -4.754417         2.409261        -0.001635
 H        -2.780377        -0.666497         0.608591
