19
Iteration:  2428
 O        -0.028511         0.031065        -0.176443
 C        -0.957413         0.619592         0.742438
 C        -1.385223         2.078238         0.988919
 C        -2.387872         1.157908         1.828667
 C        -1.228210         0.253820         2.235696
 C        -3.789214         1.685885         2.085805
 C        -4.104741         1.813799         0.488607
 O        -3.536810         0.856239        -0.289658
 C        -2.489586         0.247593         0.488724
 H         0.927015         0.303047        -0.168548
 H        -0.837984         2.778546         1.710216
 H        -1.799171         2.485678         0.020897
 H        -0.463777         0.486161         2.969447
 H        -1.369244        -0.867888         2.456285
 H        -4.456483         1.065493         2.698266
 H        -3.864052         2.663071         2.547997
 H        -5.197594         1.716485         0.255415
 H        -3.548011         2.735674         0.236076
 H        -2.728115        -0.894974         0.558528
