19
Iteration:  2152charge 0 multiplicity 1
 O         0.024417        -0.091022         0.096573
 C        -0.997111         0.611652         0.663281
 C        -1.376918         2.085803         0.934195
 C        -2.349752         1.128451         1.739397
 C        -1.222092         0.283624         2.193936
 C        -3.707474         1.626175         2.050591
 C        -4.300938         1.822604         0.576808
 O        -3.488807         0.999333        -0.310032
 C        -2.453037         0.261768         0.412099
 H         0.506339         0.372368        -0.619643
 H        -0.672202         2.740681         1.511398
 H        -1.894116         2.473560         0.072002
 H        -0.567229         0.852611         3.001613
 H        -1.230696        -0.839762         2.444501
 H        -4.252413         0.832859         2.474532
 H        -3.756189         2.488607         2.720646
 H        -5.318417         1.513349         0.500161
 H        -4.212069         2.918199         0.283631
 H        -2.767278        -0.776637         0.323835
