19
Iteration:  3792
 O        -0.031079        -0.080765        -0.136078
 C        -0.919174         0.512373         0.745393
 C        -1.268090         2.111632         0.918575
 C        -2.380880         1.233253         1.769964
 C        -1.232537         0.259837         2.262355
 C        -3.849613         1.605593         2.031801
 C        -4.388106         1.651452         0.553267
 O        -3.288250         1.140164        -0.323219
 C        -2.513889         0.294491         0.559379
 H         0.692203         0.564498        -0.287832
 H        -0.651895         2.609887         1.723243
 H        -1.585713         2.702710         0.071534
 H        -0.546439         0.610635         3.049056
 H        -1.738866        -0.789006         2.354310
 H        -4.267101         0.778128         2.634496
 H        -4.138876         2.557048         2.541503
 H        -5.256332         0.976770         0.360300
 H        -4.532330         2.738011         0.341621
 H        -2.714072        -0.766492         0.604285
