19
Iteration:  3898
 O         0.199111         0.205596        -0.109160
 C        -1.021494         0.581363         0.602248
 C        -1.328791         1.964104         1.062184
 C        -2.443105         1.074048         1.813227
 C        -1.292811         0.237666         2.268452
 C        -3.818878         1.761535         2.013816
 C        -4.153290         1.828763         0.494381
 O        -3.490391         0.874255        -0.287366
 C        -2.559809         0.166678         0.581409
 H        -0.214416        -0.081322        -0.950220
 H        -0.440508         2.347378         1.629638
 H        -1.498021         2.732459         0.304241
 H        -0.559462         0.629726         2.952433
 H        -1.435508        -0.862694         2.472405
 H        -4.626925         1.236953         2.518153
 H        -3.774037         2.819356         2.370156
 H        -5.285641         1.590368         0.461553
 H        -3.825617         2.886326         0.093207
 H        -2.739394        -0.991894         0.604347
