19
Iteration:  3038
 O         0.070466         0.004838        -0.123518
 C        -0.920446         0.554275         0.653162
 C        -1.339787         2.082203         1.002974
 C        -2.369899         1.155949         1.766568
 C        -1.233918         0.211062         2.230649
 C        -3.781985         1.678833         2.067847
 C        -4.223903         1.805130         0.563262
 O        -3.479278         0.907323        -0.359977
 C        -2.586179         0.324709         0.477366
 H         0.847262         0.052155         0.451261
 H        -0.932421         2.631468         1.856386
 H        -1.794963         2.791521         0.278103
 H        -0.502367         0.552426         2.923176
 H        -1.620133        -0.855279         2.449224
 H        -4.389170         1.010621         2.663471
 H        -3.967818         2.631516         2.562458
 H        -5.380589         1.700962         0.596415
 H        -4.045256         2.867866         0.286545
 H        -2.679567        -0.774207         0.649829
