19
Iteration:  2655charge 0 multiplicity 1
 O        -0.040873         0.020073        -0.112943
 C        -1.013487         0.588803         0.685275
 C        -1.289812         2.057357         0.898414
 C        -2.340795         1.210510         1.782177
 C        -1.272105         0.299000         2.274418
 C        -3.775668         1.626383         2.089567
 C        -4.241429         1.770090         0.536686
 O        -3.400715         0.938401        -0.300071
 C        -2.495853         0.189323         0.530609
 H         0.807945         0.530818        -0.145739
 H        -0.786624         2.835059         1.413435
 H        -1.748492         2.397460         0.008299
 H        -0.426796         0.662042         2.912630
 H        -1.683925        -0.735107         2.396097
 H        -4.341708         0.764754         2.564457
 H        -3.951121         2.581404         2.661186
 H        -5.262091         1.652679         0.312854
 H        -4.013572         2.878907         0.463145
 H        -2.859735        -0.851684         0.590894
