19
Iteration:   695charge 0 multiplicity 1
 O         0.115155        -0.010252         0.001066
 C        -1.016603         0.537904         0.727322
 C        -1.264178         1.979267         1.099451
 C        -2.389622         1.144678         1.776960
 C        -1.292443         0.109859         2.240086
 C        -3.770269         1.948675         1.891918
 C        -4.437406         1.547002         0.509615
 O        -3.331017         1.108173        -0.345176
 C        -2.517975         0.327404         0.505231
 H         0.650448         0.652600        -0.541992
 H        -0.496982         2.499485         1.686070
 H        -1.751939         2.515791         0.214494
 H        -0.503508         0.237321         2.952253
 H        -1.749534        -0.912416         2.329358
 H        -4.527112         1.837162         2.761468
 H        -3.358694         2.991167         1.892694
 H        -5.209572         0.716851         0.784967
 H        -4.929704         2.419712         0.052060
 H        -2.882148        -0.707044         0.507001
