19
Iteration:  2396
 O        -0.036879         0.160953        -0.264642
 C        -1.081149         0.485905         0.690012
 C        -1.265494         1.950055         1.085405
 C        -2.371798         1.258549         1.850328
 C        -1.172688         0.219030         2.331598
 C        -3.742860         1.782812         1.976071
 C        -4.197942         1.740187         0.494397
 O        -3.428456         0.896586        -0.332740
 C        -2.593681         0.182590         0.573730
 H         0.805911         0.588669        -0.135539
 H        -0.679687         2.463838         1.878064
 H        -1.539836         2.673677         0.305759
 H        -0.361482         0.730351         2.860136
 H        -1.507355        -0.855851         2.626340
 H        -4.351830         0.972240         2.392407
 H        -3.938728         2.726596         2.425364
 H        -5.268548         1.415494         0.458811
 H        -4.161675         2.652456        -0.111166
 H        -2.928098        -0.765850         0.968027
