19
Iteration:  2096
 O        -0.000130         0.219085        -0.173165
 C        -1.008144         0.564203         0.747630
 C        -1.283664         2.021818         1.070022
 C        -2.390856         1.153913         1.859874
 C        -1.198234         0.127519         2.229498
 C        -3.774004         1.758211         1.975571
 C        -4.206392         1.853454         0.466362
 O        -3.452727         0.818513        -0.355798
 C        -2.534530         0.262771         0.609621
 H        -0.032722        -0.734525        -0.288174
 H        -0.617261         2.608210         1.770749
 H        -1.573598         2.478839         0.128926
 H        -0.363626         0.470560         2.990166
 H        -1.536029        -0.927739         2.442672
 H        -4.502098         1.123588         2.476419
 H        -3.779102         2.702023         2.475922
 H        -5.256740         1.662916         0.312161
 H        -3.961372         2.850098         0.011538
 H        -2.861797        -0.778634         0.773754
