19
Iteration:  4334
 O         0.236502         0.004503         0.010753
 C        -1.000432         0.544805         0.645572
 C        -1.139481         2.039430         1.062191
 C        -2.358156         1.252841         1.712687
 C        -1.214056         0.236793         2.240808
 C        -3.891412         1.728734         2.028180
 C        -4.561325         1.562071         0.539447
 O        -3.401921         1.102697        -0.383462
 C        -2.553289         0.379521         0.475864
 H         0.052968        -0.937814        -0.184656
 H        -0.361313         2.299619         1.755865
 H        -1.242452         2.927113         0.371496
 H        -0.360427         0.335692         2.864379
 H        -1.669779        -0.793111         2.440211
 H        -4.286031         1.099136         2.797676
 H        -3.857553         2.814383         2.251943
 H        -5.391036         0.797085         0.355676
 H        -5.162187         2.454620         0.341771
 H        -2.928255        -0.673705         0.644113
