19
Iteration:  2750
 O         0.044469         0.027725        -0.071651
 C        -0.963344         0.499831         0.666039
 C        -1.261895         1.958618         0.940314
 C        -2.370532         1.123093         1.740124
 C        -1.197872         0.318106         2.251409
 C        -3.783273         1.677845         2.083755
 C        -4.368158         1.812654         0.609645
 O        -3.478151         0.962697        -0.367084
 C        -2.501232         0.276501         0.525455
 H         0.724328         0.721352         0.059435
 H        -0.556962         2.702498         1.336571
 H        -1.690352         2.506020         0.078456
 H        -0.407703         0.899619         2.823093
 H        -1.383715        -0.670229         2.529609
 H        -4.388979         0.964723         2.574862
 H        -3.817376         2.672443         2.540324
 H        -5.437117         1.297294         0.555707
 H        -4.391962         2.754748         0.049710
 H        -2.837331        -0.747727         0.804276
