19
Iteration:   676charge 0 multiplicity 1
 O         0.087209        -0.028303         0.006207
 C        -0.920845         0.525733         0.818165
 C        -1.310468         2.009961         1.102804
 C        -2.425109         1.076559         1.663302
 C        -1.343925         0.219154         2.303594
 C        -3.651839         1.874996         1.934776
 C        -4.370715         1.607297         0.576146
 O        -3.408513         1.121144        -0.407257
 C        -2.503178         0.271089         0.407344
 H         0.033977         0.468449        -0.861604
 H        -0.757880         2.347180         1.996316
 H        -1.529211         2.673353         0.253668
 H        -0.809207         0.868058         2.975414
 H        -1.439093        -0.835019         2.613551
 H        -4.269580         1.377411         2.695752
 H        -3.416044         2.957562         2.050745
 H        -5.170715         0.817126         0.582158
 H        -4.769315         2.555890         0.140289
 H        -2.893335        -0.779587         0.434009
