19
Iteration:  3992
 O         0.153910         0.027767         0.143467
 C        -0.948188         0.561526         0.702303
 C        -1.307358         1.991988         0.915467
 C        -2.417045         1.086870         1.720281
 C        -1.214329         0.191539         2.171333
 C        -3.741278         1.699327         2.031861
 C        -4.448253         1.733647         0.595297
 O        -3.447758         1.118879        -0.354743
 C        -2.574801         0.292116         0.437551
 H         0.464035         0.235030        -0.767190
 H        -0.499028         2.556734         1.353410
 H        -1.630979         2.505633        -0.030389
 H        -0.449318         0.644973         2.898551
 H        -1.434442        -0.842062         2.457200
 H        -4.242910         1.062855         2.794240
 H        -3.487904         2.665958         2.463341
 H        -5.319548         1.093272         0.563423
 H        -4.521350         2.756927         0.302608
 H        -2.843188        -0.752002         0.597738
