19
Iteration:  3067charge 0 multiplicity 1
 O        -0.034466        -0.114866        -0.022405
 C        -0.988380         0.586812         0.680752
 C        -1.305178         2.059169         0.882008
 C        -2.365030         1.156470         1.758161
 C        -1.160105         0.341878         2.209093
 C        -3.855743         1.499512         2.053242
 C        -4.361604         1.842871         0.612995
 O        -3.333614         1.072159        -0.321195
 C        -2.506730         0.297976         0.455144
 H         0.821184         0.292517         0.175630
 H        -0.750289         2.620330         1.691381
 H        -1.736089         2.737777         0.106296
 H        -0.184121         0.610621         2.809978
 H        -1.401614        -0.711095         2.557956
 H        -4.461052         0.636781         2.511287
 H        -4.073089         2.432823         2.737141
 H        -5.362922         1.539475         0.373984
 H        -4.248847         2.890692         0.317686
 H        -2.682183        -0.829907         0.530857
