19
Iteration:  1791
 O        -0.031079         0.059373        -0.266903
 C        -1.018475         0.535841         0.730632
 C        -1.309115         2.007814         1.212073
 C        -2.479916         1.038762         1.855144
 C        -1.320707         0.128729         2.250836
 C        -3.811014         1.621826         1.969655
 C        -4.100232         1.911618         0.471025
 O        -3.370342         1.034734        -0.367769
 C        -2.491661         0.307725         0.552743
 H         0.902809         0.140713         0.106220
 H        -0.618305         2.449434         1.892062
 H        -1.558563         2.655931         0.336648
 H        -0.665787         0.694331         2.949969
 H        -1.485529        -0.882369         2.481762
 H        -4.600179         0.981094         2.435106
 H        -3.922974         2.594151         2.469568
 H        -5.204028         1.917045         0.230673
 H        -3.763970         2.988060         0.389099
 H        -2.772083        -0.721085         0.485612
