19
Iteration:  4969charge 0 multiplicity 1
 O         0.217923         0.077434         0.072454
 C        -0.981644         0.595994         0.750531
 C        -1.356640         2.007750         0.978995
 C        -2.394556         1.120045         1.788055
 C        -1.267558         0.093003         2.199444
 C        -3.730772         1.676747         2.046687
 C        -4.400506         1.754011         0.433432
 O        -3.445419         1.025982        -0.360803
 C        -2.526498         0.329545         0.494531
 H         0.279943         0.619598        -0.759404
 H        -0.708938         2.748773         1.568771
 H        -1.883724         2.404005         0.081589
 H        -0.437467         0.527489         2.769581
 H        -1.590178        -0.896519         2.167260
 H        -4.363168         1.016832         2.699519
 H        -3.574438         2.622902         2.548284
 H        -5.366857         1.269657         0.641187
 H        -4.441579         2.768888         0.091865
 H        -2.848994        -0.707361         0.646547
