19
Iteration:  3411charge 0 multiplicity 1
 O         0.077006         0.000235        -0.038184
 C        -0.999326         0.549888         0.686890
 C        -1.185308         2.075389         1.069643
 C        -2.315924         1.254797         1.778149
 C        -1.289531         0.230975         2.204782
 C        -3.785996         1.781002         2.064862
 C        -4.421655         1.482088         0.545752
 O        -3.424747         1.098415        -0.418667
 C        -2.442986         0.316125         0.485557
 H        -0.305488        -0.329984        -0.873253
 H        -0.405557         2.428951         1.794269
 H        -1.586073         2.927259         0.420855
 H        -0.443684         0.374922         2.922297
 H        -1.617025        -0.823137         2.459489
 H        -4.421200         1.182532         2.758238
 H        -3.928505         2.839638         2.390223
 H        -5.251130         0.746787         0.765354
 H        -4.867386         2.457147         0.100671
 H        -2.791792        -0.702728         0.676305
