19
Iteration:   836charge 0 multiplicity 1
 O         0.069981         0.096695        -0.085064
 C        -0.957060         0.560663         0.676026
 C        -1.330373         2.081167         1.033418
 C        -2.430236         1.095761         1.748616
 C        -1.361319         0.216088         2.364966
 C        -3.716243         1.698965         1.980536
 C        -4.100149         1.935646         0.492068
 O        -3.653695         0.819455        -0.384874
 C        -2.441510         0.180009         0.496122
 H         0.910274         0.174439         0.507411
 H        -0.694426         2.544596         1.781851
 H        -1.741634         2.843688         0.281759
 H        -0.726372         0.675781         3.127208
 H        -1.627319        -0.928690         2.435903
 H        -4.541398         1.153515         2.544556
 H        -3.534713         2.699703         2.385622
 H        -5.164283         2.014736         0.417311
 H        -3.541562         2.850030         0.191804
 H        -2.448042        -0.959403         0.471692
