19
Iteration:   647
 O         0.151698        -0.009819         0.057931
 C        -1.016599         0.541941         0.726848
 C        -1.260666         2.018146         0.924548
 C        -2.304925         1.251195         1.794591
 C        -1.322710         0.182762         2.197269
 C        -3.843193         1.704688         1.994278
 C        -4.373230         1.682849         0.496048
 O        -3.337083         1.091780        -0.332615
 C        -2.553866         0.349501         0.543330
 H         0.024943        -0.576729        -0.672620
 H        -0.471494         2.388252         1.601394
 H        -1.539869         2.636996         0.133122
 H        -0.525512         0.439106         2.975897
 H        -1.621544        -0.833908         2.354049
 H        -4.332058         0.930724         2.525349
 H        -4.181826         2.658116         2.391380
 H        -5.280941         1.138180         0.274165
 H        -4.479243         2.745726         0.209757
 H        -2.993538        -0.646597         0.621736
