19
Iteration:   515
 O         0.059783        -0.068196        -0.030864
 C        -0.969368         0.589825         0.759274
 C        -1.242074         2.069667         1.068008
 C        -2.402320         1.118389         1.648677
 C        -1.361289         0.178402         2.370051
 C        -3.783419         1.664752         2.038080
 C        -4.289012         1.841926         0.500983
 O        -3.486195         0.948603        -0.419867
 C        -2.424415         0.331417         0.450985
 H         0.321444         0.673377        -0.554073
 H        -0.647961         2.711832         1.726634
 H        -1.511304         2.564110         0.115889
 H        -0.624203         0.745870         2.998267
 H        -1.697578        -0.896231         2.590543
 H        -4.436687         1.053599         2.626014
 H        -3.568480         2.583663         2.580518
 H        -5.324117         1.716470         0.333645
 H        -4.004738         2.914322         0.365481
 H        -2.503998        -0.742025         0.529361
