19
Iteration:  4340charge 0 multiplicity 1
 O         0.217223        -0.001310         0.021887
 C        -0.988214         0.562840         0.629358
 C        -1.164305         1.989260         1.055325
 C        -2.409967         1.259666         1.731974
 C        -1.238402         0.272602         2.178096
 C        -3.864196         1.725717         2.003448
 C        -4.539191         1.566529         0.564309
 O        -3.355225         1.083789        -0.357989
 C        -2.516041         0.390020         0.475953
 H        -0.234735        -0.799838        -0.278855
 H        -0.504493         2.356763         1.919900
 H        -1.395194         2.773575         0.372547
 H        -0.373966         0.316256         2.934115
 H        -1.677955        -0.718718         2.358267
 H        -4.302607         1.035018         2.766924
 H        -3.919561         2.797868         2.279561
 H        -5.258372         0.763023         0.592104
 H        -5.033686         2.528811         0.225566
 H        -2.914921        -0.604722         0.677179
