19
Iteration:  4469charge 0 multiplicity 1
 O         0.184531         0.081932         0.028047
 C        -0.969803         0.455045         0.717251
 C        -1.399068         1.980362         0.923218
 C        -2.424119         1.113888         1.757284
 C        -1.176400         0.289252         2.226869
 C        -3.837927         1.635406         2.051169
 C        -4.221782         1.898235         0.525335
 O        -3.511102         0.908231        -0.332686
 C        -2.551531         0.266498         0.440438
 H         0.808202         0.863332         0.030823
 H        -0.749449         2.728431         1.481213
 H        -1.671875         2.520812         0.048552
 H        -0.356081         0.905216         2.745774
 H        -1.304485        -0.648068         2.670358
 H        -4.650095         0.909905         2.239785
 H        -4.063615         2.374476         2.792534
 H        -5.320597         1.633409         0.526825
 H        -4.083261         2.937959         0.180185
 H        -2.895513        -0.787433         0.594850
