19
Iteration:   360charge 0 multiplicity 1
 O         0.069464         0.012369         0.051987
 C        -1.008915         0.549183         0.713575
 C        -1.292578         2.042491         1.032500
 C        -2.406535         1.130498         1.698440
 C        -1.420917         0.226705         2.243362
 C        -3.678101         1.726286         2.074550
 C        -4.302421         1.625182         0.519986
 O        -3.306906         1.109345        -0.400914
 C        -2.509528         0.403237         0.397048
 H        -0.203723        -0.891744        -0.351561
 H        -0.472055         2.364683         1.655259
 H        -1.666238         2.558324         0.151007
 H        -0.729767         0.528990         3.017484
 H        -1.755614        -0.832676         2.425666
 H        -4.213432         1.195133         2.838894
 H        -3.538587         2.752120         2.412208
 H        -5.106841         0.932286         0.651928
 H        -4.746645         2.587770         0.105542
 H        -2.811482        -0.618302         0.655885
