19
Iteration:  3569charge 0 multiplicity 1
 O         0.141807         0.086342        -0.056875
 C        -0.933507         0.529652         0.666693
 C        -1.471879         2.042406         1.064731
 C        -2.457285         1.031622         1.733699
 C        -1.063777         0.254597         2.179870
 C        -3.874748         1.749112         1.979702
 C        -4.221608         1.923426         0.537846
 O        -3.489822         0.877246        -0.296345
 C        -2.520082         0.139351         0.603300
 H        -0.118017         0.261661        -0.985571
 H        -0.897956         2.619021         1.763754
 H        -1.758929         2.677032         0.231674
 H        -0.358735         0.907080         2.846370
 H        -1.283875        -0.782695         2.541550
 H        -4.478886         1.104813         2.609467
 H        -3.805120         2.706326         2.452824
 H        -5.169923         2.038980         0.037150
 H        -3.761600         2.862343         0.389838
 H        -2.763100        -0.909806         0.714119
