19
Iteration:  3324
 O         0.053768         0.094014        -0.067195
 C        -0.969776         0.596091         0.652616
 C        -1.305836         2.016280         0.984947
 C        -2.402080         1.116505         1.856534
 C        -1.245346         0.164288         2.196749
 C        -3.799566         1.714528         2.027399
 C        -4.165658         1.891811         0.470395
 O        -3.581541         0.760016        -0.214780
 C        -2.486793         0.343537         0.499552
 H         0.604065         0.878922        -0.304497
 H        -0.612012         2.723040         1.490084
 H        -1.726482         2.569060         0.084372
 H        -0.570455         0.510459         2.987749
 H        -1.565693        -0.915343         2.422636
 H        -4.455751         0.958860         2.479663
 H        -3.859221         2.674285         2.560053
 H        -5.189930         1.905601         0.224672
 H        -3.558015         2.620073        -0.030891
 H        -2.609173        -0.761133         0.481687
