19
Iteration:  1615
 O        -0.023130         0.060408        -0.129425
 C        -0.996535         0.492850         0.725876
 C        -1.312231         2.032014         1.140472
 C        -2.373721         1.087995         1.836288
 C        -1.352527         0.030374         2.244966
 C        -3.798666         1.724742         2.010599
 C        -4.354244         1.710761         0.527873
 O        -3.187292         1.274916        -0.381851
 C        -2.466117         0.350291         0.447573
 H         0.138206        -0.920689        -0.267180
 H        -0.588956         2.689896         1.683020
 H        -1.624368         2.569436         0.262288
 H        -0.536570         0.172145         2.905910
 H        -1.878235        -0.872381         2.313550
 H        -4.396690         1.054025         2.737415
 H        -3.577627         2.717062         2.438371
 H        -5.164287         0.987678         0.400340
 H        -4.614545         2.765307         0.180412
 H        -3.012583        -0.704991         0.456334
