19
Iteration:  1324
 O        -0.079881         0.071262        -0.237479
 C        -0.952186         0.524997         0.726964
 C        -1.212863         1.952936         1.161584
 C        -2.450097         1.192309         1.814276
 C        -1.314697         0.090333         2.274175
 C        -3.836303         1.830131         2.003230
 C        -4.282190         1.652874         0.418428
 O        -3.236535         1.155561        -0.333721
 C        -2.517306         0.296613         0.524482
 H         0.743370        -0.373167         0.108019
 H        -0.471946         2.258056         1.935162
 H        -1.446238         2.668545         0.431075
 H        -0.619092         0.466305         3.035467
 H        -1.725883        -0.935314         2.450777
 H        -4.551704         1.254601         2.633560
 H        -3.866185         2.862383         2.455685
 H        -5.083539         0.833768         0.553049
 H        -4.757276         2.554447         0.106589
 H        -2.848072        -0.734528         0.477466
