19
Iteration:  3484
 O         0.087245        -0.059096         0.036707
 C        -0.975308         0.549802         0.736509
 C        -1.351277         2.077251         1.038130
 C        -2.357948         1.168594         1.735473
 C        -1.157421         0.218554         2.149309
 C        -3.700310         1.815298         1.993653
 C        -4.426335         1.466240         0.590961
 O        -3.406193         1.151840        -0.323318
 C        -2.551857         0.358535         0.437364
 H        -0.026482         0.209058        -0.905888
 H        -0.628113         2.526833         1.671159
 H        -1.562224         2.674656         0.156513
 H        -0.636414         0.481921         2.995122
 H        -1.568870        -0.753825         2.371102
 H        -4.250804         1.471360         2.886756
 H        -3.606641         2.898720         2.055091
 H        -4.996511         0.535402         0.774238
 H        -4.981672         2.297262         0.185814
 H        -2.867062        -0.717406         0.360166
