19
Iteration:  1389
 O         0.128028        -0.095679         0.048651
 C        -0.948355         0.470961         0.643127
 C        -1.249659         1.964065         1.005219
 C        -2.332274         1.147166         1.737984
 C        -1.292309         0.135031         2.171660
 C        -3.819866         1.616272         2.100852
 C        -4.440569         1.778651         0.529903
 O        -3.380307         1.313003        -0.378461
 C        -2.572313         0.356272         0.459303
 H         0.898415         0.414693         0.246336
 H        -0.461518         2.280461         1.711729
 H        -1.668763         2.627265         0.302432
 H        -0.515102         0.639344         2.798177
 H        -1.696800        -0.881927         2.492391
 H        -4.390537         0.922010         2.671241
 H        -3.942930         2.637853         2.532688
 H        -5.333550         1.151881         0.128184
 H        -4.569570         2.839839         0.315382
 H        -2.895363        -0.770247         0.434638
