19
Iteration:  1132charge 0 multiplicity 1
 O         0.162716         0.185602        -0.050030
 C        -0.940608         0.569289         0.746555
 C        -1.302793         1.966883         1.095614
 C        -2.486310         1.087839         1.745849
 C        -1.357927         0.081623         2.209005
 C        -3.733890         1.725800         1.975696
 C        -4.088200         1.883269         0.514519
 O        -3.544723         0.955547        -0.328900
 C        -2.548536         0.256886         0.458617
 H         0.009918        -0.640683        -0.489950
 H        -0.722319         2.578093         1.833768
 H        -1.644802         2.485350         0.198787
 H        -0.761068         0.472938         3.103280
 H        -1.763789        -0.899591         2.549564
 H        -4.549660         1.207847         2.430968
 H        -3.685354         2.705685         2.438027
 H        -5.194618         1.823229         0.440052
 H        -3.644811         2.861818         0.184300
 H        -2.908426        -0.753781         0.558602
