19
Iteration:  1583
 O         0.148076         0.143698        -0.018321
 C        -0.952428         0.429151         0.672062
 C        -1.081487         1.970437         1.148911
 C        -2.411836         1.090194         1.725510
 C        -1.350778         0.078627         2.191788
 C        -3.813298         1.706466         2.036308
 C        -4.439352         1.848448         0.552506
 O        -3.398048         1.150133        -0.387928
 C        -2.603233         0.313324         0.432565
 H         0.328786        -0.694869        -0.399901
 H        -0.362732         2.298387         1.945819
 H        -1.093511         2.625891         0.294908
 H        -0.536876         0.261380         2.874829
 H        -1.824124        -0.841519         2.416501
 H        -4.575200         1.098727         2.656167
 H        -3.613583         2.587972         2.671909
 H        -5.449415         1.476013         0.478940
 H        -4.414876         2.880688         0.138969
 H        -3.105760        -0.667353         0.438534
