19
Iteration:  1474charge 0 multiplicity 1
 O        -0.039717         0.164930        -0.187844
 C        -0.980273         0.520870         0.760630
 C        -1.264506         1.980161         1.174676
 C        -2.461903         1.110918         1.859935
 C        -1.350043         0.081126         2.259271
 C        -3.828023         1.612367         2.009245
 C        -4.090666         1.931727         0.441796
 O        -3.355132         1.035065        -0.351758
 C        -2.534277         0.328685         0.461003
 H        -0.114778        -0.827841        -0.362666
 H        -0.461474         2.364468         1.870012
 H        -1.282698         2.747754         0.428281
 H        -0.566096         0.362072         2.983065
 H        -1.654995        -0.996341         2.491992
 H        -4.509007         0.879948         2.455822
 H        -3.876043         2.559042         2.544849
 H        -5.053999         1.661608         0.101509
 H        -3.897538         2.968625         0.238003
 H        -2.631643        -0.744174         0.417066
