19
Iteration:  4588
 O         0.077115         0.002330        -0.035384
 C        -0.905300         0.574658         0.765358
 C        -1.305193         1.990412         0.996784
 C        -2.414215         1.096574         1.734736
 C        -1.282771         0.269113         2.252357
 C        -3.760313         1.786765         2.002963
 C        -4.380267         1.543522         0.531000
 O        -3.466735         1.160731        -0.394861
 C        -2.440240         0.310926         0.445936
 H         0.906360         0.286517         0.349250
 H        -0.728719         2.548685         1.714040
 H        -1.472819         2.575150         0.170447
 H        -0.522467         0.829528         2.956463
 H        -1.380602        -0.763533         2.504973
 H        -4.366035         1.050420         2.627525
 H        -3.855380         2.644145         2.594054
 H        -5.053639         0.693165         0.771290
 H        -5.092084         2.321868         0.205813
 H        -2.820806        -0.697399         0.367357
