19
Iteration:  3686charge 0 multiplicity 1
 O         0.120199        -0.082438         0.011470
 C        -0.979400         0.536264         0.735750
 C        -1.256181         2.063965         0.904873
 C        -2.348960         1.187912         1.715441
 C        -1.321473         0.266070         2.292681
 C        -3.722772         1.613987         2.025889
 C        -4.467883         1.584272         0.581404
 O        -3.413625         1.194607        -0.304465
 C        -2.462793         0.349412         0.404946
 H         0.400978         0.487126        -0.756197
 H        -0.528400         2.688632         1.478322
 H        -1.637844         2.651875         0.083237
 H        -0.609468         0.535296         3.107132
 H        -1.709272        -0.715958         2.373207
 H        -4.096545         0.853876         2.752631
 H        -3.760837         2.591247         2.512250
 H        -5.351389         0.917191         0.517276
 H        -4.895356         2.602247         0.209797
 H        -2.876990        -0.671578         0.617023
