19
Iteration:  2648
 O        -0.032912         0.016822        -0.080744
 C        -1.007562         0.510251         0.714019
 C        -1.341613         2.069168         0.877034
 C        -2.329663         1.255095         1.737445
 C        -1.249420         0.270199         2.300367
 C        -3.768239         1.564385         2.061125
 C        -4.260067         1.751952         0.613699
 O        -3.417821         0.983659        -0.356042
 C        -2.495926         0.246739         0.498223
 H         0.718048         0.644224        -0.041516
 H        -0.572204         2.799043         1.397978
 H        -1.784218         2.501375        -0.070849
 H        -0.489176         0.627771         2.922658
 H        -1.635525        -0.760932         2.480120
 H        -4.096381         0.846223         2.863577
 H        -3.764336         2.520235         2.566134
 H        -5.315643         1.679496         0.188993
 H        -4.082010         2.783607         0.275870
 H        -2.821363        -0.713577         0.914836
