19
Iteration:  4157charge 0 multiplicity 1
 O         0.179711         0.133793         0.124815
 C        -0.975601         0.524070         0.687489
 C        -1.354342         1.985249         0.943336
 C        -2.383881         1.060612         1.719870
 C        -1.296975         0.190280         2.168103
 C        -3.777708         1.665368         2.028576
 C        -4.220776         1.876235         0.555241
 O        -3.509749         0.987838        -0.357435
 C        -2.552855         0.258157         0.505670
 H         0.213402         0.217095        -0.828281
 H        -0.775494         2.731143         1.548283
 H        -1.773192         2.315418         0.028575
 H        -0.579025         0.647131         2.869565
 H        -1.399742        -0.948031         2.350598
 H        -4.431658         1.005638         2.634749
 H        -3.545066         2.655797         2.517505
 H        -5.281552         1.563915         0.512506
 H        -3.974140         2.899353         0.283571
 H        -2.905619        -0.798269         0.647215
