19
Iteration:   264charge 0 multiplicity 1
 O         0.184398         0.131591        -0.143544
 C        -0.970524         0.502969         0.736775
 C        -1.395174         1.973988         1.032623
 C        -2.487645         1.098245         1.832490
 C        -1.189289         0.150934         2.322569
 C        -3.902603         1.803382         1.994726
 C        -4.174560         1.915221         0.438936
 O        -3.366767         0.948308        -0.339583
 C        -2.617979         0.200914         0.523386
 H         0.302550        -0.839502        -0.156945
 H        -0.683671         2.350453         1.704588
 H        -1.787877         2.631874         0.261418
 H        -0.493052         0.615461         2.949503
 H        -1.317732        -0.875403         2.604228
 H        -4.752927         1.397104         2.515463
 H        -3.689037         2.850942         2.392355
 H        -5.245266         1.648036         0.235257
 H        -3.992321         2.969665         0.128442
 H        -3.043872        -0.818053         0.650645
