19
Iteration:  1039charge 0 multiplicity 1
 O        -0.040661         0.060423        -0.147320
 C        -0.966974         0.494644         0.739533
 C        -1.195812         1.990603         1.179168
 C        -2.388971         1.112333         1.841914
 C        -1.262790         0.175177         2.217712
 C        -3.786947         1.765417         2.038154
 C        -4.421846         1.717043         0.382822
 O        -3.286560         1.127411        -0.408000
 C        -2.492522         0.345271         0.514359
 H         0.149160        -0.805678         0.321834
 H        -0.500363         2.454609         1.848008
 H        -1.567142         2.632144         0.288717
 H        -0.601751         0.498138         3.002829
 H        -1.656111        -0.757467         2.488650
 H        -4.468345         1.131611         2.668921
 H        -3.698541         2.720688         2.613076
 H        -5.229502         0.966737         0.383464
 H        -4.655012         2.664112        -0.150178
 H        -2.820606        -0.749384         0.582427
