19
Iteration:   263
 O         0.188041         0.139981        -0.146686
 C        -0.964499         0.487022         0.735766
 C        -1.394550         1.963981         1.036346
 C        -2.485656         1.107694         1.834857
 C        -1.188347         0.149856         2.313774
 C        -3.911936         1.808133         1.980073
 C        -4.174654         1.914864         0.444889
 O        -3.372577         0.949097        -0.335740
 C        -2.618590         0.202505         0.525510
 H         0.294795        -0.859539        -0.133709
 H        -0.707032         2.356149         1.714362
 H        -1.764941         2.627192         0.294019
 H        -0.495401         0.605836         2.933961
 H        -1.293528        -0.854008         2.632607
 H        -4.752737         1.402433         2.515197
 H        -3.708842         2.823884         2.398695
 H        -5.233606         1.655412         0.235861
 H        -3.977863         2.979844         0.122681
 H        -3.024200        -0.814107         0.682769
