19
Iteration:  4073
 O         0.018751        -0.025581        -0.062545
 C        -0.954109         0.496356         0.703235
 C        -1.368008         2.045922         0.954155
 C        -2.399017         1.160721         1.805853
 C        -1.308877         0.216185         2.231291
 C        -3.745924         1.729382         2.003680
 C        -4.321309         1.567704         0.508651
 O        -3.197831         1.155280        -0.317584
 C        -2.564257         0.360632         0.576778
 H         0.160594         0.413477        -0.951148
 H        -0.651166         2.560714         1.683246
 H        -1.763071         2.788627         0.306291
 H        -0.709802         0.664523         2.962872
 H        -1.570657        -0.896377         2.164194
 H        -4.379146         1.207010         2.706329
 H        -3.760163         2.716954         2.541307
 H        -5.085075         0.786778         0.473931
 H        -5.004397         2.364126         0.187765
 H        -2.901397        -0.646457         0.741376
