19
Iteration:  3956
 O         0.074767        -0.050566        -0.036092
 C        -1.000518         0.528558         0.609145
 C        -1.346135         2.015536         0.991509
 C        -2.387523         1.222332         1.732607
 C        -1.253812         0.312094         2.284287
 C        -3.832492         1.507749         2.062456
 C        -4.344269         1.795213         0.568891
 O        -3.319190         1.035373        -0.340224
 C        -2.461098         0.316333         0.563401
 H         0.202119         0.451792        -0.875423
 H        -0.482966         2.451148         1.517961
 H        -1.669524         2.521188         0.080460
 H        -0.493354         0.915534         2.804384
 H        -1.623852        -0.624310         2.684338
 H        -4.464404         0.789014         2.569219
 H        -3.943836         2.458534         2.555655
 H        -5.410740         1.585427         0.191498
 H        -4.188725         2.925134         0.381025
 H        -2.976625        -0.654966         0.505081
