19
Iteration:  4837charge 0 multiplicity 1
 O         0.080817         0.117105        -0.074738
 C        -0.998250         0.605206         0.678031
 C        -1.254643         2.078250         1.066678
 C        -2.365783         1.221713         1.821270
 C        -1.341920         0.194377         2.252006
 C        -3.894139         1.642605         2.040990
 C        -4.244693         1.666307         0.482383
 O        -3.333724         0.952563        -0.370178
 C        -2.507548         0.350681         0.547097
 H        -0.146014        -0.610151        -0.700028
 H        -0.360647         2.667049         1.589669
 H        -1.498379         2.707039         0.214906
 H        -0.581136         0.152675         3.123498
 H        -1.610395        -0.865516         2.278644
 H        -4.526950         0.804954         2.490832
 H        -4.027592         2.629703         2.460831
 H        -5.286747         1.269401         0.388359
 H        -4.233822         2.692533         0.118344
 H        -2.870412        -0.706985         0.630568
