19
Iteration:  4471charge 0 multiplicity 1
 O         0.176976         0.087511         0.029708
 C        -0.970470         0.460420         0.733859
 C        -1.417147         1.969832         0.915520
 C        -2.427369         1.117247         1.787522
 C        -1.154425         0.290385         2.210908
 C        -3.817569         1.631989         2.052818
 C        -4.212718         1.884115         0.513902
 O        -3.516901         0.924926        -0.333322
 C        -2.557140         0.265712         0.445361
 H         0.812588         0.823737         0.024607
 H        -0.787933         2.777458         1.439269
 H        -1.609734         2.503028         0.041633
 H        -0.320672         0.782982         2.722612
 H        -1.423179        -0.629259         2.696418
 H        -4.609432         0.891853         2.238129
 H        -4.136119         2.427067         2.777843
 H        -5.247744         1.612970         0.423158
 H        -4.146122         2.912845         0.163322
 H        -2.889939        -0.791959         0.549278
