19
Iteration:  4614charge 0 multiplicity 1
 O         0.213477        -0.047784         0.034569
 C        -0.960965         0.566343         0.659191
 C        -1.193833         2.089824         1.017676
 C        -2.332952         1.201444         1.733344
 C        -1.350445         0.209460         2.177745
 C        -3.777849         1.661323         1.945772
 C        -4.550382         1.529607         0.632352
 O        -3.405600         1.089340        -0.389280
 C        -2.538713         0.386626         0.499572
 H         0.790466         0.682405         0.238338
 H        -0.559706         2.662736         1.801880
 H        -1.349761         2.752982         0.076004
 H        -0.462057         0.493829         2.666613
 H        -1.737630        -0.843744         2.401793
 H        -4.370725         1.337871         2.833705
 H        -3.838732         2.822121         2.161039
 H        -5.439096         0.803843         0.596167
 H        -5.032009         2.513979         0.407316
 H        -2.937989        -0.674557         0.635831
