19
Iteration:  3055
 O        -0.045567        -0.067291         0.011063
 C        -1.023292         0.625904         0.680077
 C        -1.385583         2.094952         1.017712
 C        -2.371953         1.154612         1.755611
 C        -1.188787         0.263444         2.163978
 C        -3.738751         1.548090         2.014078
 C        -4.274448         1.832251         0.548781
 O        -3.449031         1.022621        -0.330991
 C        -2.451681         0.276350         0.464145
 H         0.860448         0.104561         0.305937
 H        -0.490472         2.641959         1.405320
 H        -1.751799         2.584514         0.105338
 H        -0.379993         0.852277         2.802338
 H        -1.314119        -0.810921         2.224351
 H        -4.250040         0.659723         2.506204
 H        -3.689153         2.451416         2.731585
 H        -5.253362         1.477358         0.484773
 H        -4.215804         2.896953         0.303414
 H        -2.876662        -0.736725         0.650753
