19
Iteration:   350charge 0 multiplicity 1
 O         0.071463        -0.001977         0.081904
 C        -0.998519         0.553477         0.722813
 C        -1.211342         2.019296         1.017855
 C        -2.354606         1.246339         1.707459
 C        -1.362952         0.199756         2.234251
 C        -3.708078         1.685887         2.043605
 C        -4.393007         1.638011         0.549490
 O        -3.359760         1.135636        -0.445957
 C        -2.495422         0.322621         0.457554
 H        -0.362401        -0.825106        -0.340302
 H        -0.591250         2.512048         1.733457
 H        -1.411715         2.769835         0.259059
 H        -0.619710         0.528370         2.915543
 H        -1.760137        -0.798248         2.387910
 H        -4.184633         1.000195         2.714711
 H        -3.819463         2.709164         2.386209
 H        -5.225218         0.960810         0.427282
 H        -4.663955         2.664318         0.156042
 H        -2.931523        -0.679286         0.524229
