19
Iteration:  4853charge 0 multiplicity 1
 O         0.008607         0.050569        -0.070944
 C        -0.935132         0.594324         0.777413
 C        -1.329002         2.040161         1.047615
 C        -2.429350         1.188897         1.811557
 C        -1.231626         0.177719         2.252716
 C        -3.814374         1.608080         1.982796
 C        -4.364029         1.692675         0.495945
 O        -3.255876         1.063213        -0.366446
 C        -2.427913         0.322581         0.514451
 H        -0.570998        -0.332328        -0.737094
 H        -0.780735         2.631324         1.722580
 H        -1.806664         2.705137         0.283497
 H        -0.639061         0.811985         2.821732
 H        -1.724035        -0.789261         2.502943
 H        -4.328562         0.875337         2.615528
 H        -3.914172         2.647491         2.402403
 H        -5.246317         1.112243         0.252050
 H        -4.396710         2.733738         0.029798
 H        -2.724642        -0.750085         0.653734
