19
Iteration:  4320charge 0 multiplicity 1
 O         0.172740         0.063563        -0.020726
 C        -0.903822         0.470496         0.731471
 C        -1.101638         2.045829         1.043024
 C        -2.353165         1.241720         1.751663
 C        -1.286757         0.167153         2.210727
 C        -3.808718         1.718315         1.967483
 C        -4.505511         1.510378         0.548589
 O        -3.524871         1.167546        -0.394664
 C        -2.548061         0.397063         0.457803
 H         0.459642        -0.827213         0.340190
 H        -0.289705         2.498934         1.742953
 H        -1.398960         2.595436         0.202366
 H        -0.635343         0.728002         2.963970
 H        -1.515980        -0.887103         2.610775
 H        -4.350517         1.122572         2.712811
 H        -3.920541         2.799624         2.288177
 H        -5.316700         0.747018         0.699540
 H        -4.789723         2.483108         0.058253
 H        -2.992589        -0.601533         0.625331
