19
Iteration:   860
 O         0.125907         0.108219        -0.011786
 C        -0.988321         0.472914         0.719173
 C        -1.370131         1.966241         1.030436
 C        -2.444458         1.163094         1.831583
 C        -1.205301         0.138644         2.118934
 C        -3.815250         1.728537         1.933455
 C        -4.168511         1.953005         0.404162
 O        -3.512070         0.898254        -0.253960
 C        -2.571563         0.226678         0.570328
 H         0.892141         0.632193         0.159748
 H        -0.710073         2.368137         1.842728
 H        -1.582633         2.644550         0.248638
 H        -0.415804         0.606681         2.665056
 H        -1.408637        -0.929740         2.324025
 H        -4.618862         1.055547         2.356324
 H        -3.916911         2.785935         2.339077
 H        -5.243665         1.841799         0.283653
 H        -3.720284         2.836139        -0.056166
 H        -2.819822        -0.786357         0.929555
