19
Iteration:  3516charge 0 multiplicity 1
 O         0.148367        -0.052509        -0.008244
 C        -0.943890         0.503083         0.696434
 C        -1.176359         2.015531         0.896100
 C        -2.403661         1.271873         1.724404
 C        -1.234129         0.334643         2.194414
 C        -3.842057         1.558821         2.084750
 C        -4.376067         1.705473         0.583181
 O        -3.462686         1.056534        -0.304956
 C        -2.562840         0.347662         0.506196
 H         0.220897         0.578428        -0.751401
 H        -0.416173         2.434257         1.503720
 H        -1.362008         2.578444        -0.015109
 H        -0.638859         0.847407         2.961540
 H        -1.702719        -0.607121         2.536302
 H        -4.235186         0.645296         2.558505
 H        -4.060866         2.427110         2.693814
 H        -5.372717         1.180683         0.553914
 H        -4.559359         2.694900         0.194686
 H        -2.850292        -0.733936         0.687509
