19
Iteration:  3845
 O         0.141811         0.027196        -0.099057
 C        -0.952587         0.491023         0.659226
 C        -1.332043         2.067436         1.012690
 C        -2.420714         1.138517         1.720800
 C        -1.246032         0.298251         2.141256
 C        -3.844074         1.622779         2.071742
 C        -4.302646         1.838089         0.564211
 O        -3.440115         0.962570        -0.285443
 C        -2.531919         0.328198         0.504563
 H         0.652604        -0.455078         0.586071
 H        -0.571795         2.596294         1.653565
 H        -1.629256         2.636281         0.142079
 H        -0.501179         0.695616         2.774012
 H        -1.347856        -0.781019         2.473653
 H        -4.441173         0.781270         2.388923
 H        -3.936401         2.452584         2.811730
 H        -5.365967         1.649927         0.266907
 H        -4.266790         2.875451         0.297502
 H        -2.739153        -0.742045         0.791802
