19
Iteration:  4715charge 0 multiplicity 1
 O         0.087305         0.113207        -0.092823
 C        -1.009276         0.579034         0.711114
 C        -1.262453         2.090145         1.098298
 C        -2.377568         1.224514         1.779473
 C        -1.330851         0.214219         2.316380
 C        -3.809673         1.628634         1.978763
 C        -4.330401         1.742496         0.463505
 O        -3.377495         0.943807        -0.342073
 C        -2.431619         0.270200         0.487629
 H        -0.322744        -0.688879        -0.523307
 H        -0.585949         2.587844         1.835564
 H        -1.684555         2.752595         0.257174
 H        -0.518871         0.614372         2.917215
 H        -1.682986        -0.789413         2.488613
 H        -4.187160         0.699158         2.371495
 H        -3.944126         2.518648         2.628098
 H        -5.419196         1.471779         0.482876
 H        -4.224933         2.737481         0.097850
 H        -2.636776        -0.844089         0.516022
