19
Iteration:  4263
 O         0.001744         0.034876        -0.078917
 C        -0.949324         0.522300         0.770643
 C        -1.351399         2.034677         1.034867
 C        -2.442317         1.130299         1.761179
 C        -1.142783         0.155737         2.202169
 C        -3.794102         1.750935         1.937409
 C        -4.441898         1.722468         0.523108
 O        -3.298191         1.084854        -0.381055
 C        -2.501609         0.286507         0.568325
 H         0.857891         0.052388         0.350651
 H        -0.662931         2.461479         1.809104
 H        -1.525809         2.767882         0.209489
 H        -0.372038         0.646241         2.954548
 H        -1.376403        -0.875835         2.510341
 H        -4.424772         1.055125         2.583676
 H        -3.742801         2.731570         2.418618
 H        -5.362384         1.108059         0.635552
 H        -4.800972         2.600076        -0.066734
 H        -2.844658        -0.739458         0.510795
