19
Iteration:  1426
 O         0.154158         0.043872         0.059187
 C        -0.952080         0.517315         0.684467
 C        -1.231408         1.944099         1.055835
 C        -2.448720         1.076665         1.717404
 C        -1.402597         0.082804         2.172667
 C        -3.759387         1.710637         2.113659
 C        -4.349735         1.830452         0.534906
 O        -3.366927         1.151892        -0.392168
 C        -2.519672         0.275004         0.407032
 H         0.173105         0.371538        -0.849791
 H        -0.644143         2.511456         1.773194
 H        -1.656362         2.735927         0.359413
 H        -0.786877         0.254729         3.050428
 H        -1.810032        -0.898016         2.281197
 H        -4.306632         1.085586         2.960099
 H        -3.602648         2.751055         2.497579
 H        -5.416595         1.591967         0.420987
 H        -4.169168         2.908653         0.263578
 H        -2.885149        -0.734831         0.474968
