19
Iteration:  2324
 O         0.020963        -0.125196         0.058473
 C        -0.998836         0.598690         0.660171
 C        -1.164986         2.050010         0.893395
 C        -2.342458         1.180711         1.748650
 C        -1.194703         0.274814         2.181761
 C        -3.816679         1.671513         2.041694
 C        -4.413398         1.572199         0.691971
 O        -3.432361         1.177783        -0.375204
 C        -2.575828         0.381676         0.435123
 H         0.923984         0.167405         0.183081
 H        -0.344420         2.477363         1.531889
 H        -1.484883         2.714116         0.117763
 H        -0.385879         0.790631         2.730182
 H        -1.288449        -0.756804         2.338876
 H        -4.263544         0.854763         2.683865
 H        -4.035421         2.658659         2.510008
 H        -5.162572         0.746948         0.544832
 H        -4.947261         2.451263         0.228888
 H        -2.830556        -0.740675         0.499996
