19
Iteration:  3146charge 0 multiplicity 1
 O         0.060965         0.044110        -0.226719
 C        -0.992168         0.556768         0.673344
 C        -1.379751         2.044486         1.193536
 C        -2.386775         1.159456         1.789606
 C        -1.179120         0.057806         2.282682
 C        -3.719198         1.933790         1.924917
 C        -4.409930         1.674393         0.529104
 O        -3.444665         0.994420        -0.325123
 C        -2.473434         0.250018         0.526015
 H         0.853924         0.381310         0.214118
 H        -0.538671         2.508785         1.770559
 H        -1.735626         2.696261         0.365012
 H        -0.486719         0.488060         3.080495
 H        -1.423925        -1.047599         2.595482
 H        -4.339987         1.387390         2.679639
 H        -3.563924         3.046269         1.918022
 H        -5.238463         1.042189         0.614401
 H        -4.605014         2.517373        -0.086444
 H        -2.781194        -0.802927         0.775195
