19
Iteration:  1418
 O         0.125860         0.017621         0.078143
 C        -0.935076         0.495554         0.723497
 C        -1.270011         1.988363         1.010066
 C        -2.412585         1.070757         1.668132
 C        -1.427265         0.070141         2.179491
 C        -3.735035         1.669011         2.061338
 C        -4.310426         1.850183         0.653611
 O        -3.356041         1.162184        -0.417120
 C        -2.566564         0.323065         0.402745
 H         0.389072         0.605543        -0.670379
 H        -0.573306         2.471053         1.738542
 H        -1.637192         2.595289         0.165383
 H        -0.830442         0.447080         2.979922
 H        -1.823421        -0.951018         2.401998
 H        -4.400117         1.132253         2.794211
 H        -3.653633         2.649336         2.501381
 H        -5.197852         1.358976         0.402830
 H        -4.431648         2.894785         0.379010
 H        -2.748655        -0.730557         0.480115
