19
Iteration:  1275charge 0 multiplicity 1
 O         0.097579        -0.040173         0.042427
 C        -0.998626         0.470499         0.682942
 C        -1.251421         1.990638         1.103952
 C        -2.413697         1.103747         1.679665
 C        -1.451536         0.144209         2.175235
 C        -3.658209         1.792602         2.105235
 C        -4.410003         1.760556         0.580745
 O        -3.333138         1.087161        -0.385259
 C        -2.481550         0.385447         0.356669
 H         0.527181         0.713933        -0.330735
 H        -0.688163         2.514370         1.866088
 H        -1.596996         2.626625         0.194616
 H        -0.645040         0.502987         2.861527
 H        -1.680751        -0.905924         2.244810
 H        -4.352874         1.101643         2.581536
 H        -3.495286         2.703827         2.657132
 H        -5.286343         1.110471         0.756218
 H        -4.676961         2.793508         0.150885
 H        -2.830332        -0.732805         0.424145
