19
Iteration:  4271charge 0 multiplicity 1
 O         0.048169         0.030481        -0.047232
 C        -0.999209         0.561567         0.676052
 C        -1.413981         1.992730         1.058390
 C        -2.399863         1.130617         1.818661
 C        -1.228097         0.196518         2.182977
 C        -3.768564         1.772232         1.986599
 C        -4.348829         1.650473         0.529867
 O        -3.307645         1.096732        -0.377679
 C        -2.536385         0.335988         0.522373
 H         0.797372        -0.114989         0.521708
 H        -0.652266         2.443053         1.673384
 H        -1.795081         2.594236         0.137348
 H        -0.323203         0.467749         2.870605
 H        -1.362975        -0.865032         2.457365
 H        -4.457022         1.195390         2.663998
 H        -3.596805         2.797679         2.275325
 H        -5.116138         0.879179         0.464684
 H        -4.650672         2.578579         0.019763
 H        -2.832994        -0.730405         0.546776
