19
Iteration:  3647charge 0 multiplicity 1
 O         0.016695        -0.049815         0.055945
 C        -1.002164         0.585140         0.654672
 C        -1.311405         2.105658         1.047488
 C        -2.327419         1.193473         1.745108
 C        -1.114053         0.282998         2.222432
 C        -3.793592         1.534386         1.973725
 C        -4.422986         1.680718         0.516928
 O        -3.369931         1.139575        -0.314567
 C        -2.521365         0.319771         0.471137
 H        -0.326358        -0.432431        -0.760292
 H        -0.468594         2.435195         1.622644
 H        -1.612228         2.805942         0.223298
 H        -0.349945         0.783420         2.859376
 H        -1.159719        -0.822190         2.475978
 H        -4.334570         0.857172         2.627095
 H        -3.879015         2.529653         2.422820
 H        -5.276049         0.973717         0.423618
 H        -4.619847         2.679009         0.252752
 H        -2.881574        -0.708551         0.553213
