19
Iteration:  1508charge 0 multiplicity 1
 O         0.079324         0.166224        -0.159604
 C        -0.969020         0.450057         0.753439
 C        -1.336478         1.954441         1.002317
 C        -2.444739         1.042477         1.820607
 C        -1.277657         0.115897         2.326213
 C        -3.863842         1.511768         2.000145
 C        -4.109198         2.089411         0.480309
 O        -3.352249         1.107791        -0.334598
 C        -2.622771         0.284670         0.507447
 H         0.329589        -0.806923        -0.202098
 H        -0.638532         2.329393         1.773258
 H        -1.597006         2.606595         0.186100
 H        -0.563723         0.560760         3.103321
 H        -1.664739        -0.914726         2.599258
 H        -4.399824         0.671301         2.407306
 H        -3.921383         2.387228         2.670315
 H        -5.121806         1.875487         0.176991
 H        -3.925660         3.135207         0.371573
 H        -3.121941        -0.648344         0.267835
