19
Iteration:   365charge 0 multiplicity 1
 O         0.078526         0.006972         0.000103
 C        -1.004371         0.551415         0.717848
 C        -1.333122         2.023015         1.048319
 C        -2.442786         1.102276         1.729673
 C        -1.408517         0.192470         2.249993
 C        -3.725085         1.803837         2.043671
 C        -4.251772         1.615636         0.524585
 O        -3.284731         1.114351        -0.366541
 C        -2.511605         0.394239         0.379026
 H         0.156176        -0.871398        -0.369247
 H        -0.502284         2.577024         1.568283
 H        -1.752531         2.503053         0.147461
 H        -0.842443         0.643883         3.098206
 H        -1.767967        -0.794859         2.469631
 H        -4.373383         1.281858         2.795015
 H        -3.297610         2.771374         2.466026
 H        -5.084439         0.877599         0.814579
 H        -4.708284         2.496699         0.148387
 H        -2.873180        -0.655862         0.539248
