19
Iteration:  1849
 O         0.212369         0.116349        -0.010992
 C        -0.965820         0.448752         0.670767
 C        -1.278553         1.960613         1.038420
 C        -2.436302         1.153145         1.656955
 C        -1.431720         0.161484         2.256745
 C        -3.694176         1.670357         2.130684
 C        -4.332771         1.848027         0.651297
 O        -3.423527         1.154575        -0.451691
 C        -2.524267         0.245104         0.373426
 H         0.181343        -0.826875        -0.186896
 H        -0.516416         2.248660         1.820402
 H        -1.471210         2.723682         0.315858
 H        -0.809840         0.475345         3.028877
 H        -1.928320        -0.768393         2.420879
 H        -4.219579         0.855395         2.647182
 H        -3.719557         2.671743         2.688033
 H        -5.308123         1.329996         0.637707
 H        -4.467043         2.890148         0.401116
 H        -2.871223        -0.816539         0.417140
