19
Iteration:  2717
 O        -0.061914         0.151640        -0.226206
 C        -0.966868         0.553732         0.640629
 C        -1.329018         2.058774         1.016546
 C        -2.401243         1.149188         1.763650
 C        -1.290824         0.245264         2.265539
 C        -3.742588         1.698012         1.985254
 C        -4.188004         1.843985         0.515744
 O        -3.440237         0.789568        -0.220095
 C        -2.476888         0.196112         0.597336
 H         0.775663         0.342231         0.281782
 H        -0.610319         2.618225         1.636082
 H        -1.813883         2.545641         0.150994
 H        -0.489233         0.537939         3.022697
 H        -1.498591        -0.778836         2.467025
 H        -4.475528         1.196216         2.550272
 H        -3.707737         2.698427         2.439668
 H        -5.316562         1.763635         0.147901
 H        -3.911939         2.803208         0.069856
 H        -2.658413        -0.779207         1.087669
