19
Iteration:   790
 O        -0.003769         0.003058        -0.034432
 C        -1.030261         0.578534         0.675698
 C        -1.295499         2.015606         0.996699
 C        -2.380067         1.195212         1.867465
 C        -1.141034         0.219330         2.226879
 C        -3.912505         1.667496         1.942777
 C        -4.271504         1.748159         0.415875
 O        -3.310163         1.043311        -0.332276
 C        -2.583524         0.296708         0.558337
 H         0.650043        -0.068568         0.671556
 H        -0.389925         2.419649         1.469805
 H        -1.558524         2.573256         0.039227
 H        -0.178309         0.533749         2.787428
 H        -1.503836        -0.849161         2.381518
 H        -4.391458         0.800509         2.413588
 H        -4.085227         2.569225         2.498312
 H        -5.276022         1.354216         0.220865
 H        -4.207077         2.838759         0.345030
 H        -3.144734        -0.607175         0.966375
