19
Iteration:  4145
 O         0.187387         0.107501         0.103987
 C        -0.985276         0.589638         0.722197
 C        -1.277695         2.017524         0.892333
 C        -2.450041         1.170344         1.769855
 C        -1.288546         0.099518         2.225906
 C        -3.733554         1.683712         2.094484
 C        -4.306677         1.855389         0.587521
 O        -3.479755         0.902400        -0.383275
 C        -2.516451         0.327937         0.399239
 H         0.090211         0.067474        -0.876939
 H        -0.373748         2.539609         1.282726
 H        -1.652318         2.648613         0.085257
 H        -0.597931         0.348524         3.068732
 H        -1.776153        -0.955458         2.351529
 H        -4.401033         0.901993         2.525895
 H        -3.950584         2.586701         2.734878
 H        -5.392006         1.644849         0.466555
 H        -4.311308         2.857931         0.134524
 H        -2.731592        -0.771161         0.539894
