19
Iteration:  3729charge 0 multiplicity 1
 O         0.137120         0.071581        -0.102059
 C        -0.968664         0.572578         0.636608
 C        -1.253455         2.055622         1.142657
 C        -2.325176         1.141989         1.838081
 C        -1.354974         0.060371         2.181650
 C        -3.658950         1.934413         1.981974
 C        -4.454580         1.574435         0.490436
 O        -3.439799         0.949897        -0.317811
 C        -2.549164         0.321560         0.574601
 H         0.672729         0.848490        -0.434271
 H        -0.570182         2.549328         1.894235
 H        -1.683732         2.662642         0.365064
 H        -0.449493         0.343677         2.786407
 H        -1.851443        -0.947934         2.300539
 H        -4.460024         1.576664         2.673348
 H        -3.489835         3.007450         2.113696
 H        -5.373294         1.007231         0.623165
 H        -4.911571         2.420374        -0.117358
 H        -2.735851        -0.792490         0.499025
