19
Iteration:   305
 O         0.115687         0.006124        -0.012770
 C        -0.995429         0.461027         0.714464
 C        -1.219516         2.080830         1.027809
 C        -2.405541         1.216969         1.735326
 C        -1.303167         0.262736         2.293969
 C        -3.818585         1.655947         2.005841
 C        -4.315024         1.766348         0.514974
 O        -3.373300         1.057936        -0.393326
 C        -2.540691         0.305960         0.502517
 H        -0.176542        -0.870670        -0.410250
 H        -0.459040         2.568313         1.614314
 H        -1.418072         2.623902         0.129570
 H        -0.574608         0.500289         3.033269
 H        -1.728544        -0.722837         2.494894
 H        -4.270206         0.830728         2.549065
 H        -4.123658         2.546412         2.504266
 H        -5.311724         1.378126         0.365389
 H        -4.258911         2.823006         0.130797
 H        -2.853636        -0.736470         0.682879
