19
Iteration:  2508
 O        -0.057307        -0.046456        -0.102287
 C        -0.993251         0.583058         0.667037
 C        -1.293576         2.112435         0.983211
 C        -2.330537         1.214846         1.701462
 C        -1.274232         0.226376         2.144217
 C        -3.726006         1.739044         2.013492
 C        -4.296562         1.551193         0.598659
 O        -3.395471         1.052734        -0.267740
 C        -2.464331         0.325197         0.497624
 H         0.714206        -0.048270         0.492411
 H        -0.630798         2.402642         1.793744
 H        -1.581480         2.935842         0.340956
 H        -0.662081         0.784149         2.994229
 H        -1.646997        -0.852886         2.359125
 H        -4.294010         1.123497         2.737127
 H        -3.745260         2.740101         2.459875
 H        -5.218936         1.037776         0.867635
 H        -4.778766         2.419875         0.199060
 H        -2.847969        -0.712532         0.531988
