19
Iteration:  4872
 O         0.052473        -0.018422        -0.065457
 C        -0.993535         0.515489         0.700617
 C        -1.363170         2.089543         1.120891
 C        -2.467238         1.058558         1.769090
 C        -1.171220         0.329287         2.399205
 C        -3.831630         1.658225         1.952362
 C        -4.279483         1.636371         0.479351
 O        -3.301428         1.182281        -0.392516
 C        -2.519087         0.268937         0.470770
 H        -0.200096         0.007519        -1.023772
 H        -0.524607         2.471003         1.788796
 H        -1.633564         2.630130         0.173889
 H        -0.391729         0.995482         3.008883
 H        -1.183072        -0.725337         2.418805
 H        -4.444071         0.904529         2.587920
 H        -3.890925         2.559148         2.575148
 H        -5.120111         0.925158         0.389144
 H        -4.661257         2.677833         0.277590
 H        -2.936323        -0.784137         0.560806
