19
Iteration:   767charge 0 multiplicity 1
 O        -0.039765        -0.155236        -0.061417
 C        -0.934356         0.543584         0.731981
 C        -1.399858         2.122675         1.011309
 C        -2.416975         1.169807         1.781822
 C        -1.287057         0.274685         2.259725
 C        -3.802031         1.677096         2.031955
 C        -4.363732         1.690714         0.484088
 O        -3.242109         1.147170        -0.405362
 C        -2.413133         0.299953         0.464803
 H         0.857498        -0.153573         0.413099
 H        -0.741095         2.569406         1.780505
 H        -1.706759         2.732229         0.159182
 H        -0.517302         0.825184         2.936596
 H        -1.532451        -0.761009         2.535388
 H        -4.325203         0.922183         2.583497
 H        -3.805464         2.633864         2.558904
 H        -5.178855         0.995402         0.640509
 H        -4.720955         2.679323         0.202825
 H        -2.890595        -0.699304         0.595119
