19
Iteration:  4423charge 0 multiplicity 1
 O         0.069608         0.046646        -0.036360
 C        -1.006981         0.582848         0.720717
 C        -1.302010         2.014347         1.073571
 C        -2.421898         1.211168         1.787358
 C        -1.231278         0.167754         2.207402
 C        -3.797415         1.713600         1.935551
 C        -4.291887         1.855249         0.549010
 O        -3.442101         0.805154        -0.389617
 C        -2.452519         0.322574         0.567733
 H         0.469163         0.854590        -0.428929
 H        -0.556192         2.693949         1.410015
 H        -1.853166         2.583204         0.226607
 H        -0.562177         0.731717         2.918842
 H        -1.405626        -0.920843         2.386152
 H        -4.265604         0.866782         2.492463
 H        -4.061945         2.509936         2.604167
 H        -5.355751         1.428137         0.286151
 H        -4.255506         2.905959         0.118454
 H        -2.624296        -0.746140         0.842457
