19
Iteration:  2716
 O        -0.072019         0.155828        -0.221663
 C        -0.974785         0.553931         0.643512
 C        -1.327397         2.055786         1.016178
 C        -2.402450         1.148792         1.768462
 C        -1.282615         0.246495         2.264649
 C        -3.746300         1.705601         1.986818
 C        -4.175329         1.843471         0.510507
 O        -3.444234         0.781799        -0.225039
 C        -2.466992         0.199886         0.591756
 H         0.769160         0.332154         0.280909
 H        -0.568402         2.597327         1.665672
 H        -1.829804         2.548962         0.130727
 H        -0.504054         0.534927         3.018756
 H        -1.440652        -0.791695         2.448052
 H        -4.524902         1.180893         2.541967
 H        -3.698389         2.692925         2.477210
 H        -5.324924         1.731582         0.168691
 H        -3.908547         2.838241         0.069318
 H        -2.685312        -0.766983         1.092589
