19
Iteration:  3029charge 0 multiplicity 1
 O         0.138301         0.077002        -0.184840
 C        -0.946144         0.546561         0.667349
 C        -1.306724         2.023752         1.049987
 C        -2.410676         1.169633         1.766283
 C        -1.294758         0.217962         2.254454
 C        -3.844518         1.714432         2.074124
 C        -4.312409         1.891676         0.571218
 O        -3.490999         0.875914        -0.314729
 C        -2.485004         0.226005         0.502239
 H         0.995930        -0.106208         0.210339
 H        -0.621283         2.573460         1.696546
 H        -1.536204         2.643228         0.185314
 H        -0.432586         0.478598         2.777038
 H        -1.659524        -0.793442         2.402482
 H        -4.403158         1.034342         2.681011
 H        -3.708333         2.678090         2.455265
 H        -5.382532         1.601522         0.303334
 H        -3.998506         2.874679         0.168042
 H        -2.892254        -0.758317         0.617144
