19
Iteration:  2721charge 0 multiplicity 1
 O        -0.007744         0.130879        -0.245065
 C        -0.959956         0.562631         0.649108
 C        -1.343388         2.053114         1.011811
 C        -2.381846         1.154545         1.751469
 C        -1.302989         0.242584         2.276963
 C        -3.732748         1.686310         1.975860
 C        -4.241638         1.835934         0.526369
 O        -3.430449         0.818345        -0.209251
 C        -2.515484         0.190318         0.620566
 H         0.811023         0.355662         0.199733
 H        -0.735041         2.742053         1.560739
 H        -1.736203         2.600357         0.189787
 H        -0.515148         0.571946         2.968086
 H        -1.748382        -0.784507         2.556529
 H        -4.375020         1.112456         2.681149
 H        -3.732337         2.734569         2.307992
 H        -5.206394         1.841082         0.174428
 H        -3.868712         2.748999         0.069697
 H        -2.631118        -0.868465         0.945964
