19
Iteration:  1932
 O        -0.083732         0.054328        -0.273527
 C        -0.921589         0.539936         0.735140
 C        -1.196715         1.903887         1.034935
 C        -2.420629         1.130799         1.821575
 C        -1.380608         0.168539         2.444243
 C        -3.733939         1.765924         2.026610
 C        -4.376641         1.661418         0.525002
 O        -3.298192         1.213763        -0.395592
 C        -2.486952         0.303425         0.498854
 H         0.844594        -0.049791         0.098332
 H        -0.618274         2.534907         1.668098
 H        -1.348568         2.507818         0.116849
 H        -0.590188         0.335212         3.312880
 H        -1.529943        -0.952323         2.476055
 H        -4.410219         1.188021         2.666967
 H        -3.754989         2.754578         2.396994
 H        -5.060664         0.857393         0.390903
 H        -4.852223         2.604720         0.169282
 H        -2.844993        -0.790881         0.499860
