19
Iteration:   942
 O         0.105715        -0.077528         0.086649
 C        -0.940101         0.587224         0.705044
 C        -1.200569         2.010527         1.057204
 C        -2.393621         1.207081         1.777422
 C        -1.172306         0.142897         2.144599
 C        -3.911080         1.723892         1.977965
 C        -4.393143         1.600763         0.526971
 O        -3.357277         1.220474        -0.369637
 C        -2.563320         0.385476         0.477332
 H         0.023659        -0.657896        -0.735298
 H        -0.409174         2.562493         1.516341
 H        -1.518469         2.672000         0.134109
 H        -0.543714         0.328927         3.010769
 H        -1.594644        -0.868747         2.303718
 H        -4.510987         1.038507         2.578470
 H        -4.101989         2.681817         2.414194
 H        -5.339328         1.009473         0.438536
 H        -4.719848         2.626438         0.193625
 H        -2.840237        -0.608618         0.815189
