19
Iteration:  3732
 O         0.117854         0.089008        -0.110045
 C        -0.965701         0.581198         0.662694
 C        -1.272481         2.038740         1.153898
 C        -2.323190         1.138811         1.823848
 C        -1.364726         0.034578         2.170670
 C        -3.661186         1.922130         1.945305
 C        -4.430968         1.606278         0.513437
 O        -3.432516         0.945010        -0.306166
 C        -2.544140         0.320826         0.577960
 H         0.692483         0.775460        -0.466977
 H        -0.637254         2.613462         1.806438
 H        -1.690664         2.656396         0.326186
 H        -0.525044         0.343338         2.804906
 H        -1.750924        -0.876170         2.398699
 H        -4.393987         1.633753         2.714928
 H        -3.524484         2.985731         1.994413
 H        -5.296940         0.898736         0.596224
 H        -4.877149         2.429539        -0.071858
 H        -2.689157        -0.764494         0.521294
