19
Iteration:  3456
 O         0.105586         0.033398        -0.108031
 C        -1.035366         0.567317         0.647002
 C        -1.248364         2.030625         1.136931
 C        -2.343203         1.229915         1.817189
 C        -1.334149         0.140603         2.288067
 C        -3.729774         1.940132         1.936796
 C        -4.401066         1.366560         0.664503
 O        -3.341297         1.086516        -0.361638
 C        -2.523354         0.389358         0.416877
 H        -0.099594         0.025524        -1.076263
 H        -0.336544         2.348474         1.731888
 H        -1.456704         2.755098         0.301470
 H        -0.664304         0.346887         3.212763
 H        -1.925511        -0.812143         2.455891
 H        -4.177469         1.769234         2.924530
 H        -3.680139         3.051143         1.816564
 H        -4.886087         0.351067         0.876769
 H        -5.290186         1.902101         0.153445
 H        -2.799650        -0.666656         0.366122
