19
Iteration:  4234
 O        -0.011642         0.008685        -0.182151
 C        -0.959448         0.534141         0.696511
 C        -1.201644         2.011980         1.066392
 C        -2.394659         1.215606         1.865560
 C        -1.361489         0.273687         2.331966
 C        -3.837216         1.588070         1.967391
 C        -4.268948         1.733921         0.468862
 O        -3.392545         0.929702        -0.381845
 C        -2.459899         0.406565         0.576327
 H         0.696569         0.640950        -0.354452
 H        -0.387730         2.368312         1.751051
 H        -1.370548         2.760845         0.364724
 H        -0.599660         0.727309         2.829261
 H        -1.795544        -0.720049         2.571678
 H        -4.380764         0.868711         2.531453
 H        -4.093144         2.527832         2.516533
 H        -5.350128         1.485864         0.461846
 H        -4.163001         2.782758         0.177719
 H        -2.770540        -0.675516         0.628429
