19
Iteration:  2818charge 0 multiplicity 1
 O         0.000865         0.028221        -0.085137
 C        -0.954348         0.539228         0.678715
 C        -1.125745         2.013487         1.061846
 C        -2.383180         1.262133         1.740807
 C        -1.247837         0.293874         2.218258
 C        -3.766680         1.764033         1.959578
 C        -4.382617         1.483748         0.583126
 O        -3.439386         1.127744        -0.291777
 C        -2.481730         0.292971         0.471594
 H        -0.228056        -0.743763        -0.596780
 H        -0.462050         2.542609         1.674681
 H        -1.465181         2.781809         0.424055
 H        -0.567857         0.658149         2.973045
 H        -1.697603        -0.649197         2.578210
 H        -4.301145         1.128436         2.588409
 H        -3.707785         2.777582         2.318386
 H        -5.172922         0.591643         0.688060
 H        -4.960238         2.304520         0.195837
 H        -2.788790        -0.714148         0.752013
