19
Iteration:  3439charge 0 multiplicity 1
 O         0.097732         0.101602        -0.142865
 C        -0.925818         0.482603         0.754241
 C        -1.060417         1.978524         1.134452
 C        -2.327812         1.276941         1.733156
 C        -1.405538         0.180691         2.239618
 C        -3.748082         1.843995         1.894333
 C        -4.513712         1.351246         0.566389
 O        -3.459847         1.156290        -0.336981
 C        -2.460144         0.352694         0.553914
 H        -0.407662         0.055362        -0.997552
 H        -0.446086         2.405597         1.891667
 H        -1.282211         2.685673         0.372511
 H        -0.575084         0.401741         2.902838
 H        -1.641256        -0.810248         2.541797
 H        -4.309220         1.575772         2.814831
 H        -3.693368         2.919204         1.823958
 H        -5.047082         0.460123         0.872425
 H        -5.041649         2.149979         0.168740
 H        -2.936553        -0.605464         0.906018
