19
Iteration:  3398charge 0 multiplicity 1
 O         0.098216        -0.066290         0.006128
 C        -0.965434         0.618934         0.626266
 C        -1.377049         2.086903         1.059029
 C        -2.395910         1.214290         1.777948
 C        -1.257300         0.230700         2.172818
 C        -3.717443         1.668063         2.016545
 C        -4.351123         1.611744         0.574831
 O        -3.348229         1.071743        -0.336836
 C        -2.537033         0.374514         0.514010
 H        -0.195636        -0.445837        -0.837457
 H        -0.689140         2.697709         1.662349
 H        -1.735502         2.628094         0.139302
 H        -0.504731         0.643214         2.769975
 H        -1.559226        -0.818072         2.328104
 H        -4.141458         1.050965         2.834083
 H        -3.651640         2.723050         2.316866
 H        -5.130580         0.797149         0.498321
 H        -4.738423         2.573719         0.181626
 H        -2.909451        -0.638229         0.641319
