19
Iteration:  3041
 O         0.047898        -0.016243        -0.101177
 C        -0.940719         0.569085         0.662618
 C        -1.357659         2.096778         1.003066
 C        -2.364922         1.153255         1.755772
 C        -1.216696         0.203213         2.203787
 C        -3.750829         1.666909         2.059565
 C        -4.206468         1.783741         0.569211
 O        -3.489209         0.932057        -0.367259
 C        -2.581431         0.333962         0.490907
 H         0.801506         0.104073         0.505290
 H        -0.876647         2.641867         1.803438
 H        -1.827850         2.745562         0.296154
 H        -0.603400         0.590179         3.008518
 H        -1.497734        -0.780346         2.466347
 H        -4.375458         0.951899         2.589107
 H        -3.976206         2.561594         2.565912
 H        -5.303837         1.669092         0.558651
 H        -4.063579         2.837728         0.267007
 H        -2.671549        -0.708431         0.618839
