19
Iteration:  2760charge 0 multiplicity 1
 O         0.039578        -0.010349         0.015738
 C        -1.026449         0.548296         0.683723
 C        -1.256323         2.020554         0.886372
 C        -2.354474         1.167604         1.720954
 C        -1.146683         0.285371         2.180047
 C        -3.767224         1.634301         2.011045
 C        -4.433819         1.751286         0.605251
 O        -3.417001         1.006530        -0.317638
 C        -2.560207         0.268171         0.519924
 H         0.768180         0.638111        -0.148114
 H        -0.545893         2.495321         1.612876
 H        -1.692497         2.521564        -0.016743
 H        -0.380649         0.852955         2.784016
 H        -1.345010        -0.612012         2.655707
 H        -4.210368         0.997561         2.766415
 H        -3.663016         2.607965         2.519268
 H        -5.542221         1.352893         0.526786
 H        -4.401330         2.832992         0.388409
 H        -2.889196        -0.784533         0.586918
