19
Iteration:  3902
 O         0.185960         0.177008        -0.125394
 C        -1.018252         0.579513         0.634864
 C        -1.300706         2.022492         1.082358
 C        -2.442287         1.072111         1.823307
 C        -1.258520         0.216442         2.299309
 C        -3.829252         1.772827         1.992026
 C        -4.189327         1.828980         0.473813
 O        -3.509550         0.865236        -0.273338
 C        -2.535011         0.168222         0.552061
 H        -0.152142        -0.020786        -1.016811
 H        -0.436571         2.393982         1.664979
 H        -1.573377         2.744545         0.308051
 H        -0.447049         0.626097         2.898546
 H        -1.489244        -0.859345         2.410064
 H        -4.607204         1.203953         2.515170
 H        -3.773937         2.778636         2.414705
 H        -5.236370         1.592570         0.278705
 H        -3.821374         2.757225         0.193910
 H        -2.883484        -0.866519         0.561210
