19
Iteration:  3154
 O         0.057990         0.085143        -0.202329
 C        -0.954097         0.553453         0.725046
 C        -1.290130         2.010237         1.108806
 C        -2.428181         1.139087         1.769508
 C        -1.198838         0.069218         2.331084
 C        -3.750678         1.906004         1.884388
 C        -4.353919         1.659851         0.561483
 O        -3.445015         1.016974        -0.308685
 C        -2.520963         0.219317         0.492469
 H         0.935848         0.210504         0.167234
 H        -0.529834         2.490112         1.777960
 H        -1.773911         2.707889         0.379241
 H        -0.436345         0.657969         2.901424
 H        -1.304253        -0.973957         2.278125
 H        -4.458901         1.727969         2.752840
 H        -3.706456         3.025752         2.216392
 H        -5.272196         1.046595         0.727271
 H        -4.831883         2.498111         0.022343
 H        -2.948080        -0.758587         0.608716
