19
Iteration:  2070
 O        -0.040921         0.053342        -0.211983
 C        -1.032028         0.589643         0.630618
 C        -1.374286         2.024475         1.110126
 C        -2.425479         1.088500         1.777045
 C        -1.288742         0.305299         2.287582
 C        -3.722948         1.698111         2.018752
 C        -4.153848         1.845365         0.552527
 O        -3.411171         0.870592        -0.337889
 C        -2.451733         0.260722         0.511300
 H         0.639874        -0.374766         0.304806
 H        -0.626565         2.339764         1.886665
 H        -1.679103         2.867053         0.374946
 H        -0.632242         0.788731         2.937020
 H        -1.535280        -0.683530         2.599483
 H        -4.455038         1.049566         2.637047
 H        -3.668471         2.663832         2.589004
 H        -5.252497         1.691624         0.272941
 H        -3.950224         2.859898         0.140474
 H        -2.702531        -0.779451         0.525230
