19
Iteration:  3678
 O         0.124409        -0.115623         0.029988
 C        -0.933257         0.571487         0.671468
 C        -1.342565         2.078434         0.893598
 C        -2.335065         1.251388         1.717466
 C        -1.311893         0.244428         2.282937
 C        -3.773746         1.574618         2.142993
 C        -4.412990         1.619463         0.554068
 O        -3.374213         1.217219        -0.324166
 C        -2.486558         0.334990         0.441178
 H         0.308406         0.234191        -0.879891
 H        -0.508003         2.489165         1.400932
 H        -1.763973         2.548972        -0.026031
 H        -0.723471         0.678122         3.118817
 H        -1.643973        -0.731465         2.387521
 H        -4.144437         0.815920         2.839863
 H        -3.928443         2.566896         2.528044
 H        -5.153505         0.777157         0.358146
 H        -4.905337         2.545275         0.226868
 H        -2.858543        -0.685422         0.450067
