19
Iteration:  4977
 O         0.163873         0.104299         0.075462
 C        -0.988354         0.490735         0.736172
 C        -1.432067         2.040539         0.952419
 C        -2.387236         1.158661         1.780517
 C        -1.282944         0.103945         2.150653
 C        -3.778032         1.669624         2.100844
 C        -4.311093         1.735545         0.467864
 O        -3.399783         1.048837        -0.365786
 C        -2.451951         0.314796         0.535280
 H         0.074381         0.451457        -0.837946
 H        -0.776154         2.808731         1.336723
 H        -1.796498         2.582510         0.151612
 H        -0.506307         0.453862         2.887625
 H        -1.417191        -1.003336         2.345957
 H        -4.365071         0.976414         2.697568
 H        -3.778636         2.683428         2.471114
 H        -5.392784         1.339428         0.367827
 H        -4.355459         2.751957         0.124292
 H        -2.803864        -0.705715         0.559577
