19
Iteration:   680
 O         0.072258        -0.027615         0.012944
 C        -0.885047         0.521670         0.776158
 C        -1.312107         1.997853         1.100248
 C        -2.438052         1.090646         1.723865
 C        -1.324524         0.204481         2.296094
 C        -3.644398         1.872755         1.894338
 C        -4.378063         1.611720         0.578072
 O        -3.400535         1.123615        -0.380052
 C        -2.535500         0.263281         0.393037
 H         0.075119         0.592223        -0.749576
 H        -0.839513         2.449547         1.994753
 H        -1.505028         2.697711         0.322111
 H        -0.800164         0.821462         3.108364
 H        -1.525459        -0.837769         2.511494
 H        -4.167741         1.508320         2.757605
 H        -3.513037         2.931336         1.888025
 H        -5.083526         0.843395         0.554825
 H        -4.818426         2.462068         0.066736
 H        -2.831898        -0.801282         0.415288
