19
Iteration:   311charge 0 multiplicity 1
 O         0.152492        -0.031354        -0.022674
 C        -0.939640         0.500123         0.677405
 C        -1.157418         2.036331         1.004984
 C        -2.391515         1.254181         1.809609
 C        -1.323772         0.263119         2.260311
 C        -3.853592         1.641897         2.017255
 C        -4.388694         1.757120         0.435724
 O        -3.388092         1.075531        -0.393053
 C        -2.561203         0.328681         0.550472
 H        -0.091709        -0.835251        -0.449375
 H        -0.458617         2.462055         1.819311
 H        -1.522021         2.632951         0.110829
 H        -0.583722         0.626447         3.096043
 H        -1.655072        -0.779171         2.593350
 H        -4.356215         0.784249         2.563200
 H        -3.995299         2.534896         2.735028
 H        -5.442428         1.383674         0.302063
 H        -4.350043         2.805391         0.209928
 H        -2.856148        -0.735784         0.733109
