19
Iteration:  2535
 O        -0.032516        -0.038740        -0.263196
 C        -0.949838         0.541150         0.737716
 C        -1.181316         2.025513         1.090060
 C        -2.295748         1.232190         1.840049
 C        -1.145803         0.136024         2.304523
 C        -3.773502         1.899610         1.987521
 C        -4.551251         1.431795         0.499315
 O        -3.380836         1.107752        -0.374904
 C        -2.526134         0.375149         0.561209
 H         0.785140         0.361451         0.076818
 H        -0.588024         2.542530         1.877332
 H        -1.515511         2.689349         0.280114
 H        -0.497107         0.557065         3.001818
 H        -1.673364        -0.732203         2.534326
 H        -4.286411         1.430652         2.851421
 H        -3.692120         3.037645         2.054586
 H        -5.203338         0.641424         0.903792
 H        -5.181058         2.229542         0.025660
 H        -2.928755        -0.603718         0.484019
