19
Iteration:  1070charge 0 multiplicity 1
 O         0.092589         0.015323        -0.063003
 C        -1.005711         0.483362         0.700454
 C        -1.268416         2.046106         1.002824
 C        -2.337576         1.179271         1.771883
 C        -1.338711         0.222280         2.241019
 C        -3.852579         1.576726         2.074919
 C        -4.347011         1.848363         0.537886
 O        -3.278044         1.146758        -0.407094
 C        -2.518571         0.282852         0.470192
 H         0.101599        -0.925599         0.159276
 H        -0.574885         2.543635         1.614715
 H        -1.645573         2.587719         0.075399
 H        -0.634674         0.539177         3.054925
 H        -1.939142        -0.626318         2.547746
 H        -4.392803         0.672310         2.470369
 H        -3.908432         2.417457         2.844372
 H        -5.324332         1.403534         0.378392
 H        -4.310497         2.874560         0.222362
 H        -2.850053        -0.780642         0.691593
