19
Iteration:   424
 O         0.078364         0.113216        -0.084695
 C        -0.975083         0.544153         0.698942
 C        -1.184838         1.956098         1.169771
 C        -2.392332         1.255087         1.770684
 C        -1.390431         0.127137         2.265944
 C        -3.750664         1.860608         1.971513
 C        -4.382964         1.669403         0.525965
 O        -3.351618         0.977146        -0.409776
 C        -2.514078         0.331079         0.471192
 H         0.014054        -0.846549        -0.155822
 H        -0.370481         2.321007         1.875404
 H        -1.324907         2.773452         0.405842
 H        -0.592461         0.171259         3.069851
 H        -2.039669        -0.850809         2.214153
 H        -4.227823         1.260594         2.761897
 H        -3.689266         2.834982         2.407636
 H        -5.257483         1.016488         0.432536
 H        -4.566365         2.593475        -0.073678
 H        -2.962385        -0.676105         0.616515
