19
Iteration:   600charge 0 multiplicity 1
 O         0.039819        -0.006091        -0.102562
 C        -1.020186         0.595792         0.651366
 C        -1.310603         2.013277         1.071060
 C        -2.437688         1.106167         1.706416
 C        -1.326160         0.366615         2.384869
 C        -3.814020         1.550153         1.987148
 C        -4.141917         1.866163         0.540953
 O        -3.419891         1.012862        -0.390123
 C        -2.480191         0.227500         0.476386
 H         0.483365        -0.775408         0.324858
 H        -0.627373         2.528811         1.726841
 H        -1.659163         2.676804         0.225473
 H        -0.706345         0.907654         3.072313
 H        -1.464992        -0.595131         2.938816
 H        -4.466761         0.960235         2.624313
 H        -3.728581         2.556010         2.412950
 H        -5.128952         1.752689         0.197344
 H        -3.841127         2.910060         0.261925
 H        -2.891783        -0.783802         0.406227
