19
Iteration:  4175
 O         0.252855         0.061046         0.022399
 C        -0.975523         0.485329         0.696153
 C        -1.522884         1.982373         1.006001
 C        -2.470316         1.027222         1.727508
 C        -1.128475         0.274492         2.212444
 C        -3.816491         1.720312         2.040799
 C        -4.239429         1.959508         0.499951
 O        -3.422035         0.976237        -0.293810
 C        -2.650431         0.153471         0.460832
 H         0.428760         0.503623        -0.808482
 H        -0.761447         2.279488         1.691508
 H        -1.861366         2.814356         0.280988
 H        -0.359596         0.661752         2.937524
 H        -1.238380        -0.649187         2.679980
 H        -4.473339         0.897313         2.398051
 H        -3.745308         2.688968         2.463150
 H        -5.333757         1.840650         0.378422
 H        -3.841438         2.978010         0.261119
 H        -2.942918        -0.896181         0.475915
