19
Iteration:  2231charge 0 multiplicity 1
 O        -0.026022         0.030140        -0.247174
 C        -0.986858         0.549391         0.676841
 C        -1.304488         1.964651         1.064768
 C        -2.405643         1.173134         1.871014
 C        -1.286047         0.177667         2.311324
 C        -3.728173         1.927460         2.091362
 C        -4.350587         1.601154         0.429058
 O        -3.288993         0.956754        -0.340835
 C        -2.505053         0.323919         0.568922
 H         0.762141         0.613568        -0.327297
 H        -0.658505         2.495783         1.706601
 H        -1.761190         2.691596         0.375152
 H        -0.362791         0.621468         2.781482
 H        -1.770736        -0.875233         2.610904
 H        -4.414451         1.408231         2.740594
 H        -3.633639         2.993765         2.393508
 H        -5.165474         0.881678         0.645795
 H        -4.798033         2.451909        -0.079609
 H        -2.831765        -0.730511         0.532295
