19
Iteration:   492
 O         0.142735        -0.072915         0.080705
 C        -1.039537         0.507612         0.719695
 C        -1.335246         1.998073         0.964278
 C        -2.367602         1.191689         1.771974
 C        -1.229548         0.253481         2.184445
 C        -3.846229         1.608254         1.971895
 C        -4.258098         1.786326         0.521705
 O        -3.319603         1.116064        -0.332270
 C        -2.593999         0.338550         0.523788
 H        -0.003683         0.116783        -0.911575
 H        -0.627735         2.498338         1.599942
 H        -1.704243         2.663776         0.130847
 H        -0.474585         0.654674         2.884016
 H        -1.727231        -0.784384         2.321870
 H        -4.473818         0.825362         2.301688
 H        -4.133064         2.462347         2.583831
 H        -5.234033         1.416156         0.447199
 H        -4.242566         2.883160         0.230715
 H        -2.974084        -0.679022         0.686674
