19
Iteration:  1159
 O         0.065478         0.269009        -0.140228
 C        -1.046855         0.490757         0.685478
 C        -1.270755         1.891139         1.159482
 C        -2.505132         1.141301         1.872712
 C        -1.227463         0.012064         2.220382
 C        -3.789762         1.795678         1.981507
 C        -4.180161         1.974099         0.377533
 O        -3.383453         0.920428        -0.339445
 C        -2.550796         0.254483         0.593478
 H         0.130015        -0.636754        -0.393706
 H        -0.459976         2.261900         1.798172
 H        -1.544038         2.559399         0.341738
 H        -0.581471         0.485031         2.931803
 H        -1.524184        -0.971664         2.615234
 H        -4.598792         1.008322         2.181331
 H        -3.913098         2.647069         2.754076
 H        -5.221243         1.744443         0.189250
 H        -3.878093         2.900513        -0.066683
 H        -2.948010        -0.780047         0.770862
