19
Iteration:  1564
 O         0.236289         0.087902         0.009825
 C        -0.895535         0.563255         0.721120
 C        -1.253880         1.917875         1.130051
 C        -2.388936         1.144382         1.697781
 C        -1.452419        -0.005180         2.171267
 C        -3.763372         1.702429         1.999597
 C        -4.315545         1.914581         0.624732
 O        -3.538944         1.075436        -0.385126
 C        -2.486622         0.383191         0.376274
 H         0.009020        -0.802860        -0.292275
 H        -0.518489         2.471810         1.697896
 H        -1.522730         2.606451         0.258258
 H        -0.750166         0.339174         3.052011
 H        -1.697316        -1.115552         2.187584
 H        -4.171980         0.945553         2.652294
 H        -3.802022         2.638639         2.613135
 H        -5.337398         1.518463         0.521072
 H        -4.293728         2.949043         0.406680
 H        -2.871399        -0.645240         0.391466
