19
Iteration:  2301
 O         0.080034        -0.077040        -0.102779
 C        -0.941676         0.520568         0.662464
 C        -1.232245         2.040440         0.900228
 C        -2.285963         1.289537         1.682780
 C        -1.404476         0.233862         2.278951
 C        -3.735270         1.671942         2.071008
 C        -4.498769         1.527444         0.636075
 O        -3.387082         1.151801        -0.321263
 C        -2.476145         0.425324         0.495623
 H         0.949253        -0.004208         0.342388
 H        -0.650430         2.627467         1.626648
 H        -1.431417         2.564993        -0.002993
 H        -0.573886         0.580764         2.900505
 H        -1.851362        -0.737627         2.471912
 H        -4.060267         0.906848         2.867333
 H        -3.881653         2.692601         2.454078
 H        -5.345129         0.742051         0.555768
 H        -4.884729         2.463668         0.175473
 H        -2.939553        -0.580632         0.795534
