19
Iteration:  4229
 O        -0.007222         0.006625        -0.172341
 C        -1.019668         0.555701         0.677703
 C        -1.191307         2.033244         1.056478
 C        -2.415044         1.249703         1.869919
 C        -1.395645         0.251854         2.306869
 C        -3.780288         1.583173         1.977641
 C        -4.254434         1.781175         0.469752
 O        -3.370375         0.899948        -0.387157
 C        -2.446318         0.346916         0.578326
 H         0.614646         0.726879        -0.396448
 H        -0.481543         2.407995         1.797685
 H        -1.528165         2.887660         0.312026
 H        -0.542516         0.764034         2.991718
 H        -1.897361        -0.681837         2.522022
 H        -4.390250         0.682493         2.418433
 H        -4.075555         2.426217         2.587947
 H        -5.293581         1.424710         0.537238
 H        -4.060203         2.856615         0.231514
 H        -2.750855        -0.673151         0.837518
