19
Iteration:  3619charge 0 multiplicity 1
 O         0.098431         0.102770        -0.182394
 C        -0.940793         0.503864         0.733828
 C        -1.297111         2.054985         1.085890
 C        -2.380816         1.233186         1.756396
 C        -1.343257         0.236341         2.298451
 C        -3.836868         1.656023         2.026533
 C        -4.279805         1.780916         0.564697
 O        -3.398889         0.856940        -0.335364
 C        -2.466157         0.329360         0.509344
 H        -0.376820        -0.103419        -0.985963
 H        -0.493355         2.633915         1.653327
 H        -1.350530         2.724302         0.225408
 H        -0.558544         0.496983         2.957330
 H        -1.516675        -0.854042         2.371122
 H        -4.538090         1.100745         2.684509
 H        -3.745037         2.721198         2.377232
 H        -5.217896         1.187564         0.452420
 H        -4.484868         2.857651         0.183139
 H        -2.846311        -0.702258         0.800404
