19
Iteration:  4899
 O         0.080213         0.002134         0.031612
 C        -0.962717         0.514191         0.731433
 C        -1.315791         2.051416         1.022953
 C        -2.399727         1.203473         1.719014
 C        -1.247871         0.193212         2.194527
 C        -3.819291         1.663612         2.029017
 C        -4.409259         1.622770         0.506293
 O        -3.311159         1.114536        -0.326028
 C        -2.503513         0.337531         0.500147
 H         0.392304         0.663865        -0.629335
 H        -0.673510         2.673479         1.622345
 H        -1.527769         2.484844         0.059922
 H        -0.480552         0.537222         2.807325
 H        -1.709446        -0.815977         2.212592
 H        -4.295899         0.968382         2.691900
 H        -3.829030         2.680718         2.462734
 H        -5.254027         0.916486         0.352403
 H        -4.625887         2.635609         0.178851
 H        -2.876879        -0.689321         0.653236
