19
Iteration:   557
 O         0.089401         0.179401        -0.065820
 C        -1.007938         0.451889         0.741411
 C        -1.278444         1.988662         1.001628
 C        -2.421640         1.128524         1.881558
 C        -1.174489         0.025091         2.175220
 C        -3.882412         1.770403         1.935229
 C        -4.200266         1.936064         0.385353
 O        -3.460850         0.864462        -0.295434
 C        -2.619955         0.307932         0.588094
 H         0.758200         0.403852         0.584013
 H        -0.581456         2.600318         1.553383
 H        -1.565394         2.666005         0.130644
 H        -0.317301         0.200043         2.861582
 H        -1.557442        -0.987309         2.569943
 H        -4.598213         1.180955         2.428676
 H        -3.751894         2.780312         2.299520
 H        -5.213624         1.905805         0.138426
 H        -3.721080         2.921361        -0.024054
 H        -2.972419        -0.726791         0.869909
