19
Iteration:  1071charge 0 multiplicity 1
 O         0.094676         0.012112        -0.054483
 C        -1.005200         0.494960         0.701038
 C        -1.265622         2.030819         0.997461
 C        -2.338175         1.184820         1.772915
 C        -1.334846         0.220622         2.238944
 C        -3.849861         1.568904         2.089411
 C        -4.348752         1.857788         0.528523
 O        -3.280454         1.142369        -0.403536
 C        -2.520523         0.286074         0.466823
 H         0.142286        -0.923940         0.116052
 H        -0.582338         2.565706         1.603973
 H        -1.664280         2.584648         0.077222
 H        -0.654137         0.541786         3.030805
 H        -1.922202        -0.614463         2.529223
 H        -4.407757         0.656999         2.460861
 H        -3.908981         2.407338         2.852377
 H        -5.335596         1.427430         0.361855
 H        -4.345743         2.903237         0.192967
 H        -2.861588        -0.782149         0.690509
