19
Iteration:  1108
 O         0.201532         0.073382         0.067019
 C        -0.946301         0.514106         0.622365
 C        -1.281200         1.987961         1.036567
 C        -2.433873         1.150960         1.711013
 C        -1.269657         0.202496         2.241509
 C        -3.803127         1.592582         2.054283
 C        -4.305094         2.049178         0.573178
 O        -3.482826         0.980680        -0.372932
 C        -2.557281         0.217111         0.407048
 H         0.187021        -0.776439        -0.362230
 H        -0.547993         2.528335         1.788406
 H        -1.697111         2.655774         0.318356
 H        -0.462946         0.410483         2.928743
 H        -1.668728        -0.811341         2.477642
 H        -4.555990         0.936218         2.495294
 H        -3.869580         2.530896         2.557415
 H        -5.377694         1.810740         0.341892
 H        -3.866017         3.059253         0.237890
 H        -2.956909        -0.822313         0.495283
