19
Iteration:   831charge 0 multiplicity 1
 O         0.085929         0.088404        -0.114083
 C        -0.955738         0.590995         0.728684
 C        -1.344528         2.066844         1.016348
 C        -2.414977         1.102645         1.751040
 C        -1.408934         0.230795         2.375399
 C        -3.697534         1.649724         1.970244
 C        -4.103335         1.911926         0.513209
 O        -3.650873         0.851247        -0.380010
 C        -2.410925         0.182604         0.466805
 H         0.945092        -0.032785         0.267801
 H        -0.808799         2.535524         1.878459
 H        -1.589692         2.811732         0.269739
 H        -0.762962         0.707916         3.166297
 H        -1.662546        -0.772474         2.544406
 H        -4.409842         1.199084         2.610233
 H        -3.668044         2.700195         2.322813
 H        -5.224848         2.057630         0.419284
 H        -3.572250         2.760255         0.054682
 H        -2.664449        -0.881270         0.637597
