19
Iteration:  3934charge 0 multiplicity 1
 O        -0.033100        -0.020850        -0.065755
 C        -0.960736         0.651305         0.771832
 C        -1.267106         2.124033         1.089211
 C        -2.425476         1.205585         1.812694
 C        -1.191181         0.248564         2.176805
 C        -3.807872         1.637417         1.963813
 C        -4.159838         1.761928         0.494119
 O        -3.494560         0.892171        -0.354833
 C        -2.471784         0.283357         0.573281
 H         0.040825         0.341382        -0.960579
 H        -0.463525         2.526592         1.736382
 H        -1.537919         2.718571         0.222313
 H        -0.474500         0.558256         2.939886
 H        -1.413813        -0.832271         2.195133
 H        -4.326112         0.704679         2.216129
 H        -4.115091         2.396082         2.671275
 H        -5.274142         1.565812         0.379911
 H        -4.148193         2.815306         0.152094
 H        -2.917109        -0.729033         0.736744
