19
Iteration:  4571
 O         0.020733         0.035279        -0.096240
 C        -1.013562         0.559934         0.688609
 C        -1.369293         2.092390         1.015689
 C        -2.360636         1.161334         1.770380
 C        -1.273637         0.223110         2.302397
 C        -3.792565         1.694761         2.000056
 C        -4.370067         1.519282         0.570650
 O        -3.238658         1.103249        -0.379380
 C        -2.511606         0.318368         0.464219
 H         0.844467         0.150848         0.386134
 H        -0.611106         2.704680         1.627884
 H        -1.925086         2.660904         0.173747
 H        -0.618732         0.646056         2.992030
 H        -1.717672        -0.787429         2.532638
 H        -4.262196         1.169291         2.852517
 H        -3.548328         2.809598         2.059339
 H        -5.228527         0.814862         0.493436
 H        -4.767866         2.485782         0.188476
 H        -2.856767        -0.743357         0.687817
