19
Iteration:   326charge 0 multiplicity 1
 O         0.221960        -0.070518        -0.008173
 C        -0.934778         0.470669         0.704395
 C        -1.118998         1.971451         1.041503
 C        -2.385758         1.244145         1.746149
 C        -1.266578         0.232431         2.243830
 C        -3.922643         1.628722         1.990909
 C        -4.481827         1.755310         0.433068
 O        -3.449757         1.105738        -0.310343
 C        -2.509282         0.497174         0.559072
 H        -0.252752        -0.803621        -0.437858
 H        -0.194179         2.411213         1.558036
 H        -1.294497         2.686237         0.254320
 H        -0.418706         0.700712         2.840257
 H        -1.551347        -0.839132         2.521545
 H        -4.436183         0.758619         2.438292
 H        -4.250499         2.526014         2.447941
 H        -5.309577         1.111023         0.278226
 H        -4.700290         2.731023        -0.088215
 H        -2.979097        -0.480342         0.796782
