19
Iteration:  2477
 O         0.121450        -0.008034        -0.106130
 C        -0.970005         0.468563         0.721642
 C        -1.279820         1.976606         0.812123
 C        -2.409734         1.208732         1.754310
 C        -1.145845         0.268171         2.212661
 C        -3.852591         1.576756         2.090081
 C        -4.359932         1.766596         0.653120
 O        -3.478034         1.080975        -0.374984
 C        -2.512182         0.361013         0.532585
 H         0.961973        -0.026526         0.381347
 H        -0.577841         2.560121         1.337183
 H        -1.770145         2.484345        -0.017148
 H        -0.557566         0.826600         3.045427
 H        -1.376429        -0.659744         2.765085
 H        -4.458004         0.872670         2.700060
 H        -4.118758         2.555348         2.614475
 H        -5.390583         1.447244         0.606204
 H        -4.252719         2.818715         0.343263
 H        -2.872286        -0.608728         0.728116
