19
Iteration:  3821charge 0 multiplicity 1
 O        -0.028627        -0.143893        -0.048411
 C        -0.967158         0.589220         0.665684
 C        -1.247057         2.171502         1.016903
 C        -2.325256         1.218118         1.787427
 C        -1.219165         0.325098         2.209160
 C        -3.772114         1.507004         1.994749
 C        -4.305126         1.706797         0.598944
 O        -3.487730         1.002706        -0.400524
 C        -2.493531         0.411371         0.457231
 H         0.772506         0.051820         0.438863
 H        -0.581913         2.544733         1.794930
 H        -1.642478         3.013612         0.405226
 H        -0.563597         0.665926         2.979585
 H        -1.480355        -0.710265         2.440022
 H        -4.146605         0.580431         2.443599
 H        -4.153677         2.352733         2.599878
 H        -5.381608         1.478094         0.430100
 H        -4.386716         2.790984         0.498164
 H        -2.703376        -0.705773         0.516021
