19
Iteration:  3463
 O         0.081698         0.005938        -0.057399
 C        -1.044907         0.638405         0.639311
 C        -1.251191         2.016764         1.099635
 C        -2.386615         1.182624         1.783700
 C        -1.355775         0.133755         2.255587
 C        -3.732837         1.943022         1.951174
 C        -4.395492         1.384171         0.690306
 O        -3.332842         1.109346        -0.391422
 C        -2.477313         0.368471         0.435893
 H        -0.132732         0.064991        -1.005572
 H        -0.559512         2.504730         1.778012
 H        -1.626567         2.689785         0.287735
 H        -0.614411         0.350720         2.932742
 H        -1.588982        -0.921141         2.431858
 H        -4.212114         1.680537         2.927571
 H        -3.578142         3.029082         1.853636
 H        -4.585680         0.420417         1.139594
 H        -5.088303         1.998437         0.125863
 H        -2.740936        -0.705519         0.577596
