19
Iteration:  2780
 O         0.116646        -0.149829         0.035005
 C        -0.982266         0.529396         0.614309
 C        -1.338956         2.090112         0.920144
 C        -2.318245         1.224264         1.721681
 C        -1.238264         0.325455         2.166327
 C        -3.808722         1.682394         2.110464
 C        -4.364225         1.623406         0.611471
 O        -3.407915         1.107350        -0.325951
 C        -2.496631         0.323439         0.513129
 H         0.434009         0.416545        -0.706778
 H        -0.580911         2.709586         1.521863
 H        -1.897906         2.619038         0.051224
 H        -0.435049         0.646965         2.851470
 H        -1.579938        -0.701055         2.294506
 H        -4.293154         0.813378         2.680163
 H        -4.047142         2.654805         2.608715
 H        -5.174413         0.923941         0.788799
 H        -4.662654         2.606616         0.153540
 H        -3.007018        -0.637593         0.659840
