19
Iteration:  2140
 O         0.078153         0.012816         0.014006
 C        -0.937926         0.543663         0.755668
 C        -1.337442         1.969778         0.922163
 C        -2.415687         1.133034         1.681872
 C        -1.229190         0.296597         2.231852
 C        -3.752109         1.624092         2.095260
 C        -4.240736         1.855647         0.630880
 O        -3.477905         0.938233        -0.420132
 C        -2.532426         0.299066         0.468000
 H        -0.055320         0.436114        -0.838990
 H        -0.643548         2.579734         1.596809
 H        -1.760690         2.639249         0.166211
 H        -0.612118         0.897049         3.022524
 H        -1.433197        -0.780692         2.486361
 H        -4.326809         0.919387         2.665563
 H        -3.761466         2.574464         2.598471
 H        -5.262130         1.596551         0.492611
 H        -4.086825         2.892728         0.215650
 H        -2.793057        -0.686983         0.799173
