19
Iteration:  4581
 O         0.052508         0.016537        -0.060958
 C        -0.966711         0.575567         0.705261
 C        -1.319014         2.054493         1.011190
 C        -2.415352         1.130028         1.756423
 C        -1.295772         0.257844         2.286549
 C        -3.700190         1.678199         1.969414
 C        -4.388214         1.558838         0.573830
 O        -3.369278         1.146838        -0.411001
 C        -2.485577         0.300986         0.509327
 H         0.918190         0.196791         0.362403
 H        -0.770352         2.791904         1.721314
 H        -1.699106         2.576144         0.049754
 H        -0.536215         0.622713         2.921999
 H        -1.503776        -0.793296         2.655761
 H        -4.521390         1.273060         2.580084
 H        -3.698184         2.768213         2.467802
 H        -4.987612         0.604040         0.706687
 H        -4.953094         2.412691         0.103139
 H        -2.807582        -0.777839         0.367044
