19
Iteration:  1192
 O        -0.050931         0.118807        -0.167839
 C        -0.975737         0.537305         0.689821
 C        -1.306026         1.993904         1.108129
 C        -2.466352         1.106532         1.800102
 C        -1.300665         0.098985         2.340679
 C        -3.792631         1.639026         2.048537
 C        -4.239375         1.927971         0.462565
 O        -3.268894         1.044193        -0.390314
 C        -2.452576         0.285060         0.511386
 H        -0.080677        -0.870808        -0.073672
 H        -0.520945         2.590656         1.607100
 H        -1.557913         2.594762         0.258151
 H        -0.688857         0.510152         3.107587
 H        -1.653170        -0.916444         2.621108
 H        -4.543296         0.849068         2.400579
 H        -3.881178         2.596127         2.674194
 H        -5.301090         1.811437         0.235693
 H        -4.036205         2.931053         0.162675
 H        -2.693764        -0.806823         0.532565
