19
Iteration:   603
 O         0.037095        -0.016999        -0.094187
 C        -0.999519         0.575231         0.657934
 C        -1.296748         2.017989         1.050336
 C        -2.460958         1.120900         1.737418
 C        -1.310719         0.367535         2.385208
 C        -3.820833         1.571579         1.981185
 C        -4.169572         1.822247         0.539125
 O        -3.423761         1.041054        -0.401364
 C        -2.469746         0.243595         0.465835
 H         0.359155        -0.782146         0.336568
 H        -0.554443         2.511679         1.699363
 H        -1.669041         2.662980         0.318930
 H        -0.651553         0.936003         3.139067
 H        -1.403792        -0.629166         2.833297
 H        -4.348588         0.809628         2.533774
 H        -3.833326         2.549361         2.427095
 H        -5.213276         1.825344         0.246858
 H        -3.785372         2.833625         0.270820
 H        -2.858613        -0.775183         0.444566
