19
Iteration:    80charge 0 multiplicity 1
 O         0.117138         0.037215        -0.013429
 C        -0.971491         0.496022         0.757914
 C        -1.264562         1.983170         0.996518
 C        -2.392155         1.235076         1.841304
 C        -1.336037         0.169883         2.273720
 C        -3.739165         1.857231         1.906513
 C        -4.394480         1.535865         0.563243
 O        -3.346599         1.145344        -0.371379
 C        -2.501392         0.330064         0.443816
 H        -0.173508        -0.691880        -0.542334
 H        -0.582910         2.708427         1.515793
 H        -1.756544         2.416630         0.076966
 H        -0.505066         0.378634         2.966284
 H        -1.708952        -0.887048         2.564837
 H        -4.385614         1.490803         2.666541
 H        -3.753717         2.999202         2.014933
 H        -5.080506         0.696576         0.799731
 H        -4.931131         2.376782         0.259600
 H        -2.728031        -0.730196         0.575414
