19
Iteration:  2571
 O        -0.059237         0.027081        -0.130063
 C        -1.045669         0.458449         0.651693
 C        -1.231626         2.073388         0.986542
 C        -2.341929         1.242561         1.789608
 C        -1.349524         0.217481         2.259019
 C        -3.638049         1.891579         2.070676
 C        -4.415066         1.412185         0.624790
 O        -3.298721         1.091309        -0.367232
 C        -2.526724         0.305289         0.468060
 H         0.592301         0.717633        -0.241109
 H        -0.483738         2.337862         1.839099
 H        -1.353553         2.925827         0.295641
 H        -0.700222         0.471280         3.025923
 H        -1.787359        -0.740981         2.596007
 H        -4.218933         1.512892         2.944371
 H        -3.509315         2.949277         2.256669
 H        -4.925677         0.374093         0.625489
 H        -5.011492         2.114356         0.012445
 H        -2.772400        -0.809705         0.526124
