19
Iteration:  2455
 O         0.060059         0.010422        -0.071800
 C        -1.009375         0.549324         0.640853
 C        -1.320387         2.032002         0.916612
 C        -2.318142         1.157178         1.735841
 C        -1.222346         0.343897         2.176325
 C        -3.799459         1.560585         1.998409
 C        -4.301609         1.958466         0.582944
 O        -3.465514         0.920606        -0.242845
 C        -2.569213         0.195027         0.531605
 H         0.898906         0.251672         0.373946
 H        -0.569465         2.481170         1.502485
 H        -1.690169         2.671761         0.104950
 H        -0.338102         0.770547         2.832464
 H        -1.180513        -0.673610         2.612274
 H        -4.417114         0.747806         2.451338
 H        -3.880427         2.235994         2.907448
 H        -5.347177         1.765293         0.387224
 H        -4.013401         3.007061         0.280363
 H        -2.974965        -0.761260         0.719991
