19
Iteration:  3861charge 0 multiplicity 1
 O         0.108142         0.191993        -0.061120
 C        -0.969703         0.590719         0.705590
 C        -1.344951         1.963838         0.870374
 C        -2.398106         1.120110         1.828089
 C        -1.176910         0.143718         2.292199
 C        -3.798042         1.638908         2.002679
 C        -4.230603         1.850920         0.550636
 O        -3.509419         1.008362        -0.338665
 C        -2.553017         0.217607         0.510083
 H         0.502015        -0.669672         0.252233
 H        -0.650532         2.581291         1.413577
 H        -1.858950         2.404653        -0.036853
 H        -0.450392         0.636764         3.066272
 H        -1.499489        -0.861609         2.443128
 H        -4.453790         0.989961         2.646074
 H        -3.842258         2.637227         2.413289
 H        -5.307375         1.679610         0.525955
 H        -4.058152         2.910509         0.171193
 H        -2.784417        -0.862249         0.519210
