19
Iteration:  1875
 O         0.175876        -0.038838         0.033828
 C        -0.891337         0.499415         0.694108
 C        -1.133271         2.008731         1.005642
 C        -2.406586         1.137927         1.715345
 C        -1.356386         0.098524         2.236549
 C        -3.804327         1.628431         2.049138
 C        -4.430923         1.753033         0.541345
 O        -3.420324         1.208905        -0.323663
 C        -2.564902         0.448801         0.427756
 H        -0.060978        -0.053023        -0.889354
 H        -0.328128         2.514544         1.554072
 H        -1.548022         2.617979         0.148247
 H        -0.671685         0.541274         3.023164
 H        -1.709564        -0.993292         2.403003
 H        -4.394374         0.909046         2.631851
 H        -3.776811         2.600440         2.470552
 H        -5.233621         1.055067         0.427359
 H        -4.797609         2.764755         0.334384
 H        -2.984908        -0.613896         0.635206
