19
Iteration:  1647
 O        -0.013741         0.002111        -0.112158
 C        -1.012673         0.493749         0.664212
 C        -1.226970         1.980173         1.259130
 C        -2.372646         1.119748         1.819479
 C        -1.313586         0.140932         2.230503
 C        -3.835103         1.702201         1.957695
 C        -4.364925         1.686270         0.552336
 O        -3.247412         1.280019        -0.400167
 C        -2.460199         0.404094         0.403743
 H        -0.187138        -0.894611        -0.417894
 H        -0.428224         2.283865         1.968230
 H        -1.461045         2.686698         0.503805
 H        -0.503140         0.394103         2.877434
 H        -1.738618        -0.845146         2.418948
 H        -4.345380         0.955207         2.639581
 H        -3.788267         2.633546         2.505504
 H        -5.121438         0.899805         0.371043
 H        -4.844394         2.676435         0.227637
 H        -2.842335        -0.657490         0.587492
