19
Iteration:  1335
 O        -0.114707         0.056201        -0.234618
 C        -1.036134         0.491776         0.749714
 C        -1.182978         2.032646         1.190625
 C        -2.349113         1.127946         1.797535
 C        -1.392543         0.168444         2.293987
 C        -3.796371         1.759174         1.989570
 C        -4.291971         1.599056         0.575593
 O        -3.211754         1.147276        -0.436665
 C        -2.492197         0.364530         0.489222
 H         0.556463        -0.465171         0.204438
 H        -0.604570         2.581476         1.966936
 H        -1.457302         2.743377         0.474674
 H        -0.594878         0.316878         3.030388
 H        -1.669555        -0.914973         2.351014
 H        -4.511279         1.156613         2.601681
 H        -3.811365         2.876336         2.194160
 H        -5.218988         0.946584         0.299229
 H        -4.436510         2.529165         0.050713
 H        -3.009106        -0.584880         0.658668
