19
Iteration:  2386
 O        -0.076167         0.143858        -0.246514
 C        -0.992143         0.469678         0.767950
 C        -1.259376         1.992993         1.058401
 C        -2.316147         1.234468         1.864044
 C        -1.257536         0.243216         2.260324
 C        -3.735282         1.725147         2.052419
 C        -4.292398         1.712746         0.411876
 O        -3.377342         0.907735        -0.348377
 C        -2.580317         0.221606         0.567234
 H         0.667055         0.707318        -0.018866
 H        -0.312850         2.362230         1.469948
 H        -1.599293         2.651421         0.280724
 H        -0.372263         0.616574         2.861282
 H        -1.480740        -0.787778         2.796763
 H        -4.300503         1.160362         2.838968
 H        -3.864300         2.750507         2.322576
 H        -5.344600         1.389276         0.387134
 H        -4.333245         2.768446         0.191399
 H        -3.087876        -0.692696         0.728633
