19
Iteration:   877charge 0 multiplicity 1
 O         0.137345         0.045870        -0.086348
 C        -1.025658         0.509058         0.712380
 C        -1.299475         1.979224         1.030904
 C        -2.404554         1.159993         1.790728
 C        -1.176492         0.130158         2.309067
 C        -3.882560         1.734224         1.944151
 C        -4.246282         1.909483         0.463189
 O        -3.409312         0.963127        -0.376664
 C        -2.584150         0.238168         0.610392
 H         0.577172         0.862019        -0.232452
 H        -0.539831         2.570478         1.515042
 H        -1.818413         2.494175         0.133941
 H        -0.489012         0.477213         3.128680
 H        -1.650331        -0.873504         2.549009
 H        -4.402177         0.936173         2.459758
 H        -3.988763         2.563410         2.595409
 H        -5.288472         1.647989         0.161292
 H        -4.000824         2.963848         0.129968
 H        -3.093612        -0.760362         0.771624
