19
Iteration:  2625charge 0 multiplicity 1
 O         0.109005        -0.060868        -0.041886
 C        -0.971801         0.521033         0.632553
 C        -1.247332         1.982563         0.925838
 C        -2.364010         1.203688         1.763180
 C        -1.220772         0.341395         2.210163
 C        -3.772284         1.678981         2.059987
 C        -4.363251         1.726525         0.606851
 O        -3.465296         1.067951        -0.331350
 C        -2.584995         0.269290         0.509607
 H         0.865914         0.528869        -0.028657
 H        -0.608400         2.677156         1.607519
 H        -1.634777         2.531751         0.047190
 H        -0.469047         0.829561         2.753081
 H        -1.486448        -0.694519         2.521704
 H        -4.245313         0.749760         2.551196
 H        -3.944683         2.483029         2.776604
 H        -5.352886         1.159516         0.544821
 H        -4.730364         2.679662         0.163974
 H        -2.878502        -0.785686         0.668566
