19
Iteration:  1101charge 0 multiplicity 1
 O         0.196053         0.057005         0.085638
 C        -0.994230         0.546508         0.698404
 C        -1.253563         1.986631         0.996905
 C        -2.362533         1.132088         1.747088
 C        -1.206794         0.154836         2.182243
 C        -3.876110         1.600844         1.955984
 C        -4.279474         1.931916         0.612549
 O        -3.497039         1.072499        -0.387315
 C        -2.579969         0.247474         0.442018
 H         0.135760        -0.866722        -0.283762
 H        -0.611637         2.550148         1.616798
 H        -1.576708         2.587157         0.115885
 H        -0.475215         0.634162         2.932867
 H        -1.724639        -0.753874         2.558755
 H        -4.541332         0.851393         2.385595
 H        -3.907861         2.537258         2.570707
 H        -5.350800         1.946354         0.415246
 H        -4.002363         2.939886         0.399778
 H        -2.971233        -0.742096         0.627960
