19
Iteration:  1978charge 0 multiplicity 1
 O         0.076096         0.053671        -0.074741
 C        -0.947777         0.576145         0.690361
 C        -1.254859         2.053710         1.083425
 C        -2.384367         1.100317         1.795600
 C        -1.193560         0.052700         2.175499
 C        -3.800403         1.838086         2.032203
 C        -4.377707         1.734166         0.515935
 O        -3.441245         1.025500        -0.343423
 C        -2.511534         0.369688         0.458346
 H        -0.005924        -0.913246         0.095008
 H        -0.438343         2.530765         1.614742
 H        -1.667619         2.694888         0.367499
 H        -0.562226         0.388512         3.026885
 H        -1.476785        -0.979080         2.374242
 H        -4.500592         1.284078         2.642822
 H        -3.659815         2.834024         2.512249
 H        -5.318914         1.155663         0.536423
 H        -4.596153         2.729771         0.158082
 H        -2.763823        -0.726489         0.476520
