19
Iteration:  2820charge 0 multiplicity 1
 O         0.009248         0.036595        -0.105476
 C        -0.969110         0.542650         0.671875
 C        -1.135583         2.003238         1.073965
 C        -2.381940         1.265432         1.753193
 C        -1.263480         0.286054         2.215441
 C        -3.754206         1.776696         1.957489
 C        -4.403182         1.485081         0.587294
 O        -3.422806         1.112571        -0.294997
 C        -2.481054         0.307017         0.489131
 H        -0.187090        -0.805245        -0.540839
 H        -0.440704         2.523291         1.678106
 H        -1.422674         2.803585         0.415451
 H        -0.567574         0.722647         2.907374
 H        -1.744029        -0.698452         2.636885
 H        -4.346558         1.088610         2.594786
 H        -3.659539         2.802437         2.293459
 H        -5.066167         0.541231         0.672115
 H        -4.967463         2.343886         0.169887
 H        -2.792972        -0.735338         0.731968
