19
Iteration:  1637charge 0 multiplicity 1
 O        -0.048873        -0.014026        -0.163104
 C        -0.941222         0.592014         0.729158
 C        -1.238360         1.971341         1.153441
 C        -2.454029         1.084801         1.780938
 C        -1.333711         0.101558         2.222145
 C        -3.795798         1.705525         2.039551
 C        -4.312991         1.641349         0.525162
 O        -3.200171         1.260559        -0.356953
 C        -2.484668         0.451951         0.460938
 H        -0.274939        -0.936990        -0.166000
 H        -0.591240         2.335672         1.977036
 H        -1.462562         2.804320         0.517142
 H        -0.929968         0.465764         3.136275
 H        -1.536568        -0.929522         2.213370
 H        -4.546487         1.021753         2.589629
 H        -3.778668         2.730781         2.447760
 H        -5.146905         0.920308         0.533472
 H        -4.587891         2.640094         0.080840
 H        -2.898681        -0.609422         0.186206
