19
Iteration:  4303charge 0 multiplicity 1
 O         0.121660         0.068390        -0.008088
 C        -0.952467         0.554544         0.721236
 C        -1.282723         1.983694         1.010610
 C        -2.369636         1.191580         1.648774
 C        -1.385130         0.196544         2.252708
 C        -3.728670         1.769296         1.987272
 C        -4.443735         1.582861         0.647154
 O        -3.378481         1.098974        -0.372815
 C        -2.507050         0.371071         0.425152
 H         0.725285        -0.587933         0.399446
 H        -0.598216         2.443462         1.690269
 H        -1.448548         2.597123         0.058168
 H        -0.608065         0.483895         2.921831
 H        -1.868893        -0.749013         2.204218
 H        -4.196421         1.184215         2.796672
 H        -3.652227         2.738931         2.456115
 H        -4.995917         0.652213         0.585629
 H        -4.986298         2.455015         0.287629
 H        -2.706705        -0.722588         0.509697
