19
Iteration:  1846charge 0 multiplicity 1
 O         0.189812         0.124860        -0.003729
 C        -0.973089         0.470161         0.659239
 C        -1.267016         1.964326         1.047514
 C        -2.406394         1.119599         1.656041
 C        -1.437985         0.151479         2.244704
 C        -3.703368         1.669273         2.127313
 C        -4.314730         1.859012         0.633364
 O        -3.420338         1.134268        -0.445564
 C        -2.546324         0.260748         0.375290
 H         0.268793        -0.842733        -0.087122
 H        -0.525589         2.278824         1.754840
 H        -1.499566         2.741334         0.307694
 H        -0.767338         0.495030         3.065458
 H        -1.811967        -0.826035         2.478115
 H        -4.293277         0.924686         2.713330
 H        -3.658274         2.601188         2.720191
 H        -5.290763         1.299464         0.594742
 H        -4.483568         2.935665         0.401363
 H        -2.936193        -0.721804         0.444144
