19
Iteration:  2948
 O         0.055833         0.015281        -0.071654
 C        -0.935297         0.509178         0.695657
 C        -1.348295         2.023795         0.975190
 C        -2.363944         1.206860         1.756804
 C        -1.133538         0.294677         2.269373
 C        -3.812916         1.540236         2.041448
 C        -4.317882         1.881563         0.578573
 O        -3.428173         1.005216        -0.383082
 C        -2.519887         0.289586         0.536337
 H        -0.188505        -0.655633        -0.748410
 H        -0.591602         2.578858         1.567116
 H        -1.844514         2.518529         0.138348
 H        -0.634979         0.899381         3.024895
 H        -1.273504        -0.676706         2.769720
 H        -4.254301         0.691311         2.537950
 H        -4.121902         2.377171         2.702661
 H        -5.409808         1.805243         0.358258
 H        -4.089142         2.905076         0.228625
 H        -2.925949        -0.764193         0.590250
