19
Iteration:   135charge 0 multiplicity 1
 O        -0.007601        -0.075396        -0.119169
 C        -0.910106         0.550759         0.745570
 C        -1.250367         2.028870         1.057174
 C        -2.398405         1.178299         1.727844
 C        -1.368473         0.208535         2.390381
 C        -3.716316         1.756923         2.001539
 C        -4.408427         1.633965         0.500936
 O        -3.387227         1.046323        -0.384458
 C        -2.423564         0.362888         0.438659
 H         0.852046         0.382819         0.022887
 H        -0.523284         2.671632         1.632702
 H        -1.493713         2.700458         0.160784
 H        -0.798765         0.680182         3.213541
 H        -1.857212        -0.818733         2.418387
 H        -4.291946         1.194408         2.717265
 H        -3.618330         2.852300         2.263401
 H        -5.393586         1.132313         0.541261
 H        -4.563224         2.636883         0.210390
 H        -2.766139        -0.660690         0.660941
