19
Iteration:  4277charge 0 multiplicity 1
 O         0.081980         0.027478        -0.047203
 C        -1.051035         0.572654         0.643100
 C        -1.397076         1.991483         1.056436
 C        -2.389698         1.136823         1.834127
 C        -1.259807         0.200701         2.198380
 C        -3.761863         1.778731         2.030437
 C        -4.278350         1.590766         0.508650
 O        -3.318580         1.106242        -0.359827
 C        -2.536224         0.322542         0.451106
 H         0.737098        -0.184218         0.651049
 H        -0.663351         2.648365         1.587754
 H        -1.911329         2.509876         0.310484
 H        -0.494041         0.608939         2.790267
 H        -1.566339        -0.862246         2.285005
 H        -4.437039         1.399580         2.774373
 H        -3.669411         2.869524         2.275870
 H        -5.090535         0.823527         0.455097
 H        -4.599223         2.593787         0.202261
 H        -2.907515        -0.711764         0.642748
