19
Iteration:   538
 O         0.104877         0.060777        -0.062803
 C        -0.975337         0.561039         0.672042
 C        -1.276587         1.941960         1.160148
 C        -2.404290         1.195477         1.753441
 C        -1.315732         0.158981         2.214755
 C        -3.789476         1.800848         1.953054
 C        -4.202221         1.921202         0.416685
 O        -3.515495         0.854513        -0.320940
 C        -2.564238         0.199897         0.542168
 H         0.801901         0.759085         0.063873
 H        -0.496814         2.312580         1.856486
 H        -1.464809         2.715010         0.436581
 H        -0.575508         0.586386         2.974957
 H        -1.511318        -0.920151         2.336003
 H        -4.416533         1.006255         2.352164
 H        -3.877640         2.724438         2.538212
 H        -5.262865         1.675391         0.379721
 H        -4.044677         2.947439         0.065996
 H        -2.732940        -0.856719         0.719750
