19
Iteration:  3692charge 0 multiplicity 1
 O         0.103494        -0.049944         0.017555
 C        -0.955554         0.525127         0.724743
 C        -1.179031         2.035954         0.954818
 C        -2.372414         1.181064         1.700293
 C        -1.313795         0.263724         2.243602
 C        -3.726302         1.658427         1.944320
 C        -4.490150         1.558270         0.637885
 O        -3.416788         1.155667        -0.333920
 C        -2.506146         0.369062         0.437055
 H         0.338272         0.702767        -0.561685
 H        -0.626373         2.728108         1.610024
 H        -1.549604         2.630342         0.091974
 H        -0.524967         0.501176         2.944583
 H        -1.707261        -0.806098         2.573494
 H        -4.253156         0.960326         2.602198
 H        -3.708684         2.618270         2.505099
 H        -5.386709         0.920667         0.791268
 H        -4.636670         2.550920         0.321342
 H        -2.886094        -0.642024         0.605022
