19
Iteration:  1157
 O         0.074540         0.270413        -0.134229
 C        -1.067868         0.507054         0.713481
 C        -1.272847         1.894998         1.143636
 C        -2.476443         1.134265         1.872568
 C        -1.233491         0.002447         2.229251
 C        -3.797012         1.803116         1.977861
 C        -4.207796         1.997937         0.377821
 O        -3.391044         0.905567        -0.345176
 C        -2.534914         0.245384         0.580838
 H         0.151305        -0.662274        -0.441766
 H        -0.519690         2.204360         1.764427
 H        -1.569693         2.587789         0.313313
 H        -0.538609         0.466925         2.985610
 H        -1.527272        -1.019431         2.566439
 H        -4.524464         1.032794         2.236099
 H        -3.819453         2.595749         2.771078
 H        -5.228254         1.769184         0.133820
 H        -3.842305         2.888206        -0.017117
 H        -2.912034        -0.737488         0.747718
