19
Iteration:   853charge 0 multiplicity 1
 O         0.112327         0.105012        -0.009594
 C        -1.037824         0.582666         0.686410
 C        -1.342116         1.954973         1.064640
 C        -2.433569         1.090949         1.798902
 C        -1.221079         0.147905         2.169480
 C        -3.804694         1.779920         1.971482
 C        -4.137145         1.972448         0.426658
 O        -3.524280         0.807548        -0.248114
 C        -2.567693         0.239615         0.463033
 H         0.957146         0.518019         0.327816
 H        -0.623831         2.481851         1.722000
 H        -1.620921         2.584910         0.213961
 H        -0.450662         0.624039         2.826636
 H        -1.450900        -0.842787         2.448576
 H        -4.499214         1.103083         2.434706
 H        -3.876193         2.698602         2.574638
 H        -5.219715         1.897941         0.131868
 H        -3.705510         2.835880        -0.104073
 H        -2.876741        -0.778249         0.716238
