19
Iteration:   333charge 0 multiplicity 1
 O         0.183146        -0.061273         0.018965
 C        -0.947060         0.439013         0.726333
 C        -1.108583         2.041670         1.063830
 C        -2.383342         1.278331         1.747577
 C        -1.229756         0.222282         2.229159
 C        -3.922945         1.660617         1.929582
 C        -4.459483         1.714163         0.493456
 O        -3.437476         1.129387        -0.325135
 C        -2.537690         0.446173         0.480309
 H        -0.162407        -0.867219        -0.506958
 H        -0.208087         2.375940         1.691839
 H        -1.332088         2.569149         0.104477
 H        -0.400545         0.508124         2.969083
 H        -1.589434        -0.813769         2.516779
 H        -4.366583         0.777556         2.488314
 H        -4.327421         2.572142         2.482268
 H        -5.399805         1.061912         0.449886
 H        -4.692645         2.662847         0.045804
 H        -2.856418        -0.595028         0.751937
