19
Iteration:   500charge 0 multiplicity 1
 O         0.073775        -0.067441         0.046270
 C        -0.926211         0.530895         0.737904
 C        -1.301797         2.022948         0.972578
 C        -2.418147         1.196819         1.802029
 C        -1.292884         0.239532         2.231306
 C        -3.820975         1.636383         2.029273
 C        -4.299398         1.879558         0.544903
 O        -3.357295         1.039130        -0.399908
 C        -2.496643         0.284365         0.464607
 H         0.250055         0.237241        -0.887783
 H        -0.586780         2.547682         1.615469
 H        -1.745185         2.579116         0.108567
 H        -0.653880         0.609766         3.026162
 H        -1.600391        -0.852887         2.395129
 H        -4.329954         0.759537         2.480939
 H        -4.098715         2.475392         2.674341
 H        -5.295399         1.427096         0.369685
 H        -4.284648         2.887670         0.090996
 H        -2.918050        -0.748361         0.534577
