19
Iteration:  3882
 O         0.121817         0.314031        -0.052629
 C        -1.013708         0.454132         0.714315
 C        -1.404142         1.927171         0.960782
 C        -2.422874         1.097166         1.727581
 C        -1.281349         0.188083         2.223831
 C        -3.693652         1.744033         2.047231
 C        -4.199615         1.914400         0.550366
 O        -3.413539         0.851777        -0.325924
 C        -2.568942         0.197975         0.538199
 H         0.170278        -0.438545        -0.648880
 H        -0.832559         2.532378         1.649903
 H        -1.858323         2.480057         0.115286
 H        -0.574124         0.784021         2.887407
 H        -1.627688        -0.776238         2.545742
 H        -4.320285         1.043766         2.650950
 H        -3.568890         2.653151         2.618439
 H        -5.204090         1.633166         0.380982
 H        -3.962746         2.883011         0.111252
 H        -3.018001        -0.765817         0.734332
