19
Iteration:  4065charge 0 multiplicity 1
 O         0.086465         0.006891        -0.081500
 C        -0.977652         0.505418         0.667804
 C        -1.250418         2.031661         1.018539
 C        -2.425066         1.174426         1.790978
 C        -1.329228         0.225983         2.250263
 C        -3.741437         1.777543         2.045078
 C        -4.409246         1.583874         0.508072
 O        -3.265143         1.142351        -0.362806
 C        -2.558795         0.263480         0.577371
 H         0.245192         0.411177        -0.968766
 H        -0.578489         2.446381         1.735809
 H        -1.675394         2.815590         0.346445
 H        -0.606199         0.605099         3.007138
 H        -1.559550        -0.803614         2.345484
 H        -4.410382         1.130059         2.633162
 H        -3.772036         2.773158         2.408867
 H        -4.944947         0.675954         0.636360
 H        -4.895735         2.468949         0.076651
 H        -3.111572        -0.700615         0.726424
