19
Iteration:  2115charge 0 multiplicity 1
 O         0.185489         0.185249        -0.143248
 C        -1.046758         0.474781         0.650892
 C        -1.277451         1.921829         0.995851
 C        -2.367860         1.204743         1.824561
 C        -1.264907         0.189197         2.277799
 C        -3.832444         1.726341         1.961786
 C        -4.250233         1.871695         0.454053
 O        -3.448236         0.934605        -0.182641
 C        -2.549650         0.202316         0.587686
 H        -0.063607        -0.262501        -0.957565
 H        -0.430903         2.432931         1.542870
 H        -1.780464         2.699006         0.317167
 H        -0.561269         0.639582         2.928767
 H        -1.532195        -0.801106         2.507894
 H        -4.466218         0.903851         2.453192
 H        -4.073784         2.640234         2.492670
 H        -5.337945         1.633039         0.216659
 H        -4.127841         2.860656        -0.038561
 H        -2.822297        -0.796901         0.861671
