19
Iteration:  3239
 O        -0.052975        -0.198128        -0.081673
 C        -0.981031         0.601966         0.644577
 C        -1.293175         2.120068         1.058570
 C        -2.367802         1.245324         1.775545
 C        -1.185064         0.350829         2.227925
 C        -3.800713         1.559112         2.010683
 C        -4.334861         1.625508         0.524760
 O        -3.370334         1.131904        -0.372108
 C        -2.501718         0.356753         0.507670
 H         0.796714         0.247349         0.103082
 H        -0.475964         2.497762         1.654290
 H        -1.500240         2.708438         0.148696
 H        -0.470838         0.914787         2.929849
 H        -1.408945        -0.691743         2.681567
 H        -4.269862         0.685191         2.485433
 H        -3.871225         2.477942         2.657579
 H        -5.233186         0.906647         0.818243
 H        -4.829971         2.683511         0.260246
 H        -2.873116        -0.728736         0.650374
