19
Iteration:  4074charge 0 multiplicity 1
 O         0.011991        -0.035026        -0.059400
 C        -0.963043         0.507679         0.710588
 C        -1.383997         2.045083         0.955510
 C        -2.389011         1.160274         1.802154
 C        -1.301745         0.209508         2.223573
 C        -3.756507         1.725339         2.000573
 C        -4.308571         1.560852         0.512788
 O        -3.193760         1.158450        -0.311787
 C        -2.557194         0.374843         0.571051
 H         0.114395         0.429543        -0.927829
 H        -0.672110         2.564819         1.645670
 H        -1.775597         2.770428         0.257061
 H        -0.694180         0.639521         2.982274
 H        -1.560825        -0.867687         2.213496
 H        -4.366694         1.192995         2.716848
 H        -3.742389         2.695638         2.511191
 H        -5.083664         0.837339         0.456311
 H        -4.979948         2.357586         0.182823
 H        -2.877640        -0.640753         0.724642
