19
Iteration:  1948
 O        -0.034862         0.187209        -0.222784
 C        -1.058116         0.369631         0.737044
 C        -1.193886         1.936457         1.088949
 C        -2.326557         1.195999         1.759492
 C        -1.363998         0.118621         2.286144
 C        -3.793347         1.783747         1.970628
 C        -4.322068         1.625992         0.533815
 O        -3.271142         1.119230        -0.313300
 C        -2.529921         0.336050         0.497689
 H         0.738591        -0.298926         0.145777
 H        -0.266668         2.327568         1.600918
 H        -1.483731         2.619468         0.270802
 H        -0.695441         0.595768         2.885975
 H        -1.864389        -0.677670         2.804070
 H        -4.365304         1.161884         2.682899
 H        -3.674185         2.864556         2.342312
 H        -5.281188         0.999462         0.625863
 H        -4.610934         2.658991         0.241781
 H        -3.023437        -0.590003         0.617443
