19
Iteration:  4274charge 0 multiplicity 1
 O         0.066189         0.028238        -0.046536
 C        -1.028801         0.571441         0.653701
 C        -1.411792         1.984543         1.060369
 C        -2.390012         1.133389         1.830262
 C        -1.250730         0.201476         2.188255
 C        -3.763567         1.778468         2.008249
 C        -4.308355         1.616194         0.518536
 O        -3.314879         1.101413        -0.367499
 C        -2.540474         0.332999         0.483549
 H         0.785153        -0.160497         0.603898
 H        -0.635675         2.557965         1.638446
 H        -1.871458         2.531824         0.212359
 H        -0.350410         0.551453         2.856983
 H        -1.465297        -0.871720         2.359474
 H        -4.473895         1.288476         2.746615
 H        -3.624316         2.832086         2.270128
 H        -5.069007         0.827634         0.436048
 H        -4.611330         2.614591         0.111131
 H        -2.859045        -0.707494         0.604519
