19
Iteration:  4935
 O         0.274360         0.051024         0.051322
 C        -0.964505         0.532704         0.684173
 C        -1.186819         1.967000         1.110035
 C        -2.451934         1.219587         1.660876
 C        -1.362869         0.210269         2.149877
 C        -3.750997         1.718203         2.064078
 C        -4.467252         1.663189         0.566477
 O        -3.555793         0.970121        -0.364423
 C        -2.470666         0.354021         0.376765
 H         0.606716         0.914695        -0.325051
 H        -0.495916         2.465549         1.943416
 H        -1.361771         2.567355         0.219775
 H        -0.501210         0.356227         2.908478
 H        -1.611762        -0.734469         2.603600
 H        -4.266278         1.182598         2.893793
 H        -3.623289         2.722327         2.418490
 H        -5.496546         1.197476         0.399846
 H        -4.604886         2.631004         0.131037
 H        -2.761597        -0.669748         0.600777
