19
Iteration:  4262charge 0 multiplicity 1
 O        -0.001433         0.034161        -0.084973
 C        -0.948712         0.519683         0.780552
 C        -1.335266         2.036286         1.038734
 C        -2.444742         1.132638         1.753543
 C        -1.134746         0.151412         2.209686
 C        -3.799319         1.749879         1.935108
 C        -4.449464         1.726281         0.517490
 O        -3.300079         1.083305        -0.377977
 C        -2.497122         0.277546         0.563479
 H         0.857938         0.077970         0.325634
 H        -0.676649         2.484794         1.807705
 H        -1.516067         2.799503         0.199250
 H        -0.375709         0.696910         2.972713
 H        -1.399497        -0.878730         2.490937
 H        -4.429724         1.051980         2.594464
 H        -3.778045         2.712444         2.438875
 H        -5.371694         1.133183         0.644605
 H        -4.799874         2.620329        -0.050394
 H        -2.852732        -0.745320         0.528893
