19
Iteration:  3150
 O         0.063974         0.059958        -0.222203
 C        -0.975539         0.562105         0.700056
 C        -1.342062         2.040923         1.160184
 C        -2.411490         1.155750         1.773743
 C        -1.179197         0.049622         2.325011
 C        -3.731496         1.925348         1.897674
 C        -4.367265         1.674420         0.556592
 O        -3.453287         1.011176        -0.314431
 C        -2.488588         0.221030         0.502271
 H         0.920290         0.308629         0.214497
 H        -0.537503         2.463122         1.724405
 H        -1.770746         2.675896         0.409139
 H        -0.500885         0.580812         2.942347
 H        -1.354597        -1.047652         2.426838
 H        -4.372573         1.586860         2.690792
 H        -3.702505         2.972621         2.041356
 H        -5.336927         0.999908         0.667594
 H        -4.758558         2.524989        -0.116982
 H        -2.889618        -0.799374         0.728844
