19
Iteration:  3283
 O         0.005632         0.183542        -0.201011
 C        -1.022212         0.496511         0.710179
 C        -1.285933         1.943675         1.017153
 C        -2.371109         1.112044         1.804429
 C        -1.255594         0.191244         2.290844
 C        -3.743044         1.816309         2.017971
 C        -4.278011         1.777968         0.437154
 O        -3.433651         0.884238        -0.305769
 C        -2.519856         0.249783         0.586713
 H         0.840115         0.544682         0.151098
 H        -0.543843         2.450267         1.626940
 H        -1.815345         2.579038         0.311286
 H        -0.438224         0.739279         2.874889
 H        -1.361401        -0.879869         2.611981
 H        -4.425808         1.140197         2.529071
 H        -3.724099         2.843985         2.430380
 H        -5.291946         1.332823         0.481782
 H        -4.249668         2.858158         0.009439
 H        -2.915869        -0.793056         0.836841
