19
Iteration:  2398
 O        -0.038330         0.156208        -0.264882
 C        -1.084316         0.494243         0.673303
 C        -1.269350         1.958209         1.087492
 C        -2.374247         1.242460         1.840392
 C        -1.168977         0.216687         2.333850
 C        -3.753506         1.790161         1.958061
 C        -4.201729         1.763096         0.507319
 O        -3.430164         0.886286        -0.328100
 C        -2.583653         0.187452         0.587610
 H         0.818740         0.599695        -0.105801
 H        -0.720209         2.429974         1.887361
 H        -1.534973         2.617443         0.307340
 H        -0.339735         0.749561         2.909192
 H        -1.511199        -0.866523         2.606851
 H        -4.377809         0.946548         2.358562
 H        -3.918993         2.726936         2.467222
 H        -5.220936         1.365255         0.482589
 H        -4.085438         2.638750        -0.103610
 H        -2.869479        -0.762577         0.949686
