19
Iteration:  3557
 O         0.149145        -0.013310        -0.054269
 C        -0.979744         0.626649         0.665134
 C        -1.443448         2.034138         0.976476
 C        -2.443952         1.117093         1.804079
 C        -1.199304         0.325934         2.205583
 C        -3.855692         1.630663         2.082618
 C        -4.130798         1.900638         0.484108
 O        -3.472831         0.880157        -0.231594
 C        -2.544775         0.223132         0.496146
 H         0.219147         0.279151        -0.966695
 H        -0.850454         2.616259         1.695256
 H        -1.841977         2.637260         0.181088
 H        -0.312651         0.755806         2.820669
 H        -1.109084        -0.748583         2.315946
 H        -4.566086         0.893319         2.450099
 H        -3.924866         2.542445         2.645972
 H        -5.202598         1.782744         0.284889
 H        -3.760870         2.846097         0.182286
 H        -2.779562        -0.825337         0.538503
