19
Iteration:  1926charge 0 multiplicity 1
 O        -0.068624        -0.048191        -0.263746
 C        -0.904762         0.545595         0.715292
 C        -1.247018         2.000377         1.072206
 C        -2.411099         1.087381         1.830827
 C        -1.377290         0.188116         2.397434
 C        -3.737181         1.763043         2.024732
 C        -4.383791         1.652573         0.494767
 O        -3.272855         1.215428        -0.388919
 C        -2.488816         0.313923         0.517384
 H         0.870390         0.133670        -0.068034
 H        -0.651995         2.618471         1.832219
 H        -1.418333         2.634584         0.199443
 H        -0.748026         0.429303         3.155948
 H        -1.526555        -0.862987         2.321976
 H        -4.436059         1.147908         2.613568
 H        -3.598762         2.817343         2.496623
 H        -5.166667         0.798148         0.465641
 H        -4.876463         2.633365         0.430542
 H        -2.863172        -0.677745         0.488874
