19
Iteration:  4764
 O         0.182962         0.244688         0.113404
 C        -1.035934         0.516169         0.675642
 C        -1.441072         1.966359         0.884575
 C        -2.367297         1.093275         1.786950
 C        -1.198760         0.186073         2.139597
 C        -3.862715         1.632086         2.003378
 C        -4.177420         1.955774         0.549497
 O        -3.473779         0.914100        -0.319647
 C        -2.509100         0.241716         0.454915
 H         0.415549        -0.641203         0.385709
 H        -0.782043         2.624957         1.447074
 H        -1.855255         2.498525         0.053591
 H        -0.385615         0.507210         2.918094
 H        -1.654869        -0.855832         2.375765
 H        -4.468515         0.734511         2.260844
 H        -3.899944         2.539124         2.601398
 H        -5.206123         1.627797         0.453488
 H        -3.955894         3.050837         0.316931
 H        -2.922539        -0.761693         0.687925
