19
Iteration:  3512
 O         0.153743        -0.050769        -0.007394
 C        -0.941698         0.486072         0.664255
 C        -1.183696         2.025505         0.907809
 C        -2.376586         1.223680         1.725316
 C        -1.266637         0.332820         2.179948
 C        -3.854414         1.604587         2.087170
 C        -4.418690         1.680064         0.578806
 O        -3.461239         1.072743        -0.317184
 C        -2.529830         0.359203         0.543408
 H         0.318504         0.480245        -0.807440
 H        -0.307497         2.436601         1.489118
 H        -1.408189         2.607738         0.013816
 H        -0.617554         0.864139         2.990523
 H        -1.632412        -0.599489         2.669944
 H        -4.311421         0.713454         2.522614
 H        -4.065025         2.484832         2.702553
 H        -5.275627         1.001175         0.553396
 H        -4.559235         2.747082         0.329790
 H        -2.839270        -0.675479         0.625113
