19
Iteration:  2042charge 0 multiplicity 1
 O         0.052748         0.005223        -0.052606
 C        -0.955044         0.467772         0.755160
 C        -1.350108         1.966631         0.884638
 C        -2.351601         1.224182         1.757463
 C        -1.129951         0.168084         2.202898
 C        -3.872099         1.609430         2.015456
 C        -4.306191         1.841984         0.535346
 O        -3.466603         1.071261        -0.272962
 C        -2.527086         0.318307         0.567204
 H         0.819489         0.575921        -0.171765
 H        -0.548043         2.530080         1.364841
 H        -1.660210         2.569473         0.078249
 H        -0.353314         0.564894         3.028513
 H        -1.578485        -0.858270         2.393305
 H        -4.321147         0.757118         2.471795
 H        -4.095328         2.483844         2.572821
 H        -5.225058         1.786492         0.026263
 H        -3.992892         2.893409         0.337266
 H        -3.001466        -0.731126         0.629074
