19
Iteration:  3517
 O         0.145781        -0.052709        -0.007801
 C        -0.945940         0.509838         0.705069
 C        -1.176515         2.010772         0.893195
 C        -2.408233         1.284309         1.722797
 C        -1.226950         0.334646         2.202689
 C        -3.836660         1.546911         2.080810
 C        -4.366706         1.709404         0.586847
 O        -3.462232         1.051749        -0.302904
 C        -2.570366         0.343108         0.496384
 H         0.201900         0.602013        -0.744820
 H        -0.433526         2.452632         1.525139
 H        -1.361852         2.582629        -0.033924
 H        -0.641942         0.824038         2.931942
 H        -1.705287        -0.613551         2.496731
 H        -4.218460         0.627376         2.571619
 H        -4.060992         2.425314         2.699548
 H        -5.394176         1.237867         0.548997
 H        -4.560244         2.703279         0.155986
 H        -2.859795        -0.739652         0.705134
