19
Iteration:  3753charge 0 multiplicity 1
 O        -0.027012         0.129721        -0.128581
 C        -0.982028         0.491789         0.797703
 C        -1.283983         1.961187         1.062074
 C        -2.416615         1.095323         1.726800
 C        -1.220114         0.149156         2.292953
 C        -3.708176         1.929486         2.004831
 C        -4.369981         1.564942         0.569851
 O        -3.366209         1.045738        -0.390642
 C        -2.480127         0.249419         0.488479
 H         0.406113         0.982250        -0.304822
 H        -0.606002         2.372802         1.785091
 H        -1.523628         2.616423         0.201005
 H        -0.552205         0.473463         3.125474
 H        -1.453255        -0.850117         2.261221
 H        -4.494004         1.567868         2.700304
 H        -3.469827         2.966876         2.155534
 H        -5.311790         1.047007         0.646032
 H        -4.735577         2.473570         0.033490
 H        -2.913865        -0.801338         0.525498
