19
Iteration:   837
 O         0.068144         0.097995        -0.078582
 C        -0.957565         0.557750         0.666762
 C        -1.329658         2.081199         1.036758
 C        -2.430374         1.092101         1.746215
 C        -1.350230         0.210907         2.360024
 C        -3.724909         1.711088         1.982344
 C        -4.098662         1.939545         0.485924
 O        -3.650398         0.812154        -0.382097
 C        -2.450539         0.179834         0.500656
 H         0.888851         0.215522         0.540603
 H        -0.660142         2.555488         1.766042
 H        -1.749619         2.807003         0.306618
 H        -0.724275         0.652595         3.105897
 H        -1.606346        -0.906738         2.424431
 H        -4.552621         1.138809         2.526254
 H        -3.515716         2.713701         2.419045
 H        -5.161142         2.010435         0.403251
 H        -3.561562         2.864117         0.223697
 H        -2.429915        -0.936421         0.438017
