19
Iteration:  2374charge 0 multiplicity 1
 O        -0.085237         0.073694        -0.180935
 C        -1.040967         0.525204         0.678309
 C        -1.234899         1.997446         0.975168
 C        -2.376190         1.172162         1.790771
 C        -1.236959         0.210396         2.311497
 C        -3.769162         1.722003         2.054335
 C        -4.366243         1.702995         0.528671
 O        -3.332375         0.969116        -0.349732
 C        -2.467364         0.319778         0.606600
 H         0.712975         0.655120        -0.173600
 H        -0.502897         2.566055         1.581732
 H        -1.603939         2.473591         0.048850
 H        -0.567577         0.664404         3.058541
 H        -1.715265        -0.839017         2.446192
 H        -4.367669         1.138205         2.760820
 H        -3.596990         2.712464         2.406840
 H        -5.290420         1.148985         0.298058
 H        -4.331908         2.666283         0.037410
 H        -2.636646        -0.718374         0.813938
