19
Iteration:   532charge 0 multiplicity 1
 O         0.075632         0.036408        -0.059909
 C        -0.915576         0.547790         0.713284
 C        -1.269981         1.964132         1.146103
 C        -2.402982         1.156829         1.772506
 C        -1.354969         0.229464         2.230920
 C        -3.764793         1.746193         1.935336
 C        -4.173691         1.871331         0.466134
 O        -3.537060         0.879020        -0.324893
 C        -2.551390         0.249186         0.458133
 H         0.733119         0.695843        -0.184413
 H        -0.574212         2.421278         1.884789
 H        -1.431541         2.833957         0.443563
 H        -0.759906         0.485161         3.070573
 H        -1.528873        -0.821000         2.529337
 H        -4.395258         0.978402         2.497247
 H        -3.796707         2.791672         2.314374
 H        -5.299724         1.671572         0.396581
 H        -4.015378         2.899031         0.078660
 H        -2.832282        -0.835856         0.589226
