19
Iteration:  4919charge 0 multiplicity 1
 O         0.173146         0.054381         0.061902
 C        -0.900660         0.592422         0.702105
 C        -1.186434         2.071117         0.992543
 C        -2.310869         1.210776         1.748887
 C        -1.359113         0.082289         2.239187
 C        -3.756870         1.703311         1.961586
 C        -4.424199         1.639885         0.567694
 O        -3.503128         1.002757        -0.398651
 C        -2.566912         0.367986         0.467690
 H         0.706507         0.730603        -0.416502
 H        -0.481369         2.449522         1.643507
 H        -1.698789         2.673551         0.215990
 H        -0.780975         0.432597         3.047055
 H        -1.817528        -0.964143         2.177576
 H        -4.293817         1.002919         2.598646
 H        -3.945117         2.684441         2.495166
 H        -5.298872         1.058023         0.814516
 H        -4.718637         2.673746         0.208559
 H        -2.804558        -0.713117         0.581746
