19
Iteration:  4163
 O         0.233172         0.102439         0.109821
 C        -0.986944         0.518966         0.683938
 C        -1.424883         1.961441         0.970530
 C        -2.427613         1.081117         1.707498
 C        -1.220341         0.198441         2.176626
 C        -3.751328         1.651447         1.980832
 C        -4.198587         1.873728         0.555941
 O        -3.500331         1.023504        -0.313525
 C        -2.595546         0.188576         0.511654
 H         0.048371         0.394223        -0.811786
 H        -0.937215         2.623878         1.665914
 H        -1.795640         2.603463         0.074150
 H        -0.528830         0.843034         2.755725
 H        -1.475200        -0.790467         2.364914
 H        -4.397502         1.162740         2.721847
 H        -3.649029         2.580976         2.498905
 H        -5.262379         1.732023         0.291648
 H        -3.970893         2.923411         0.227765
 H        -2.968240        -0.824741         0.569598
