19
Iteration:  4555charge 0 multiplicity 1
 O        -0.051677         0.071994        -0.157301
 C        -0.968141         0.567205         0.719420
 C        -1.300439         2.031995         1.050656
 C        -2.444348         1.278666         1.814277
 C        -1.268813         0.226631         2.198217
 C        -3.838435         1.769622         2.040576
 C        -4.332634         1.526525         0.448870
 O        -3.269446         1.032816        -0.315250
 C        -2.438046         0.271479         0.580751
 H         0.868285         0.132059         0.195466
 H        -0.565765         2.411877         1.757274
 H        -1.569575         2.665411         0.264338
 H        -0.445362         0.517182         2.992789
 H        -1.473177        -0.819529         2.294363
 H        -4.435055         1.030017         2.657806
 H        -4.144735         2.727991         2.380796
 H        -5.204760         0.832030         0.314433
 H        -4.508582         2.503608        -0.043652
 H        -2.772640        -0.780886         0.645913
