19
Iteration:  3305charge 0 multiplicity 1
 O         0.077519         0.120172        -0.168850
 C        -0.995193         0.585618         0.707351
 C        -1.358513         2.032730         1.159943
 C        -2.413419         1.105472         1.749816
 C        -1.161011         0.199348         2.213102
 C        -3.759145         1.811408         1.963637
 C        -4.217352         1.883369         0.489307
 O        -3.583167         0.779356        -0.303824
 C        -2.540416         0.147671         0.573587
 H         0.861003         0.692044        -0.209877
 H        -0.719411         2.441196         1.942672
 H        -1.589592         2.760729         0.356875
 H        -0.415330         0.681348         2.971318
 H        -1.365770        -0.898328         2.446722
 H        -4.526968         1.308308         2.551191
 H        -3.449638         2.825800         2.249915
 H        -5.279787         1.637322         0.410591
 H        -3.815195         2.900605         0.033189
 H        -2.759102        -0.984820         0.661500
