19
Iteration:   598
 O         0.041078         0.004795        -0.108409
 C        -1.025275         0.597752         0.652389
 C        -1.324298         2.013288         1.075526
 C        -2.421200         1.094523         1.693390
 C        -1.335025         0.359247         2.383680
 C        -3.808324         1.545102         1.990918
 C        -4.123506         1.897870         0.535344
 O        -3.413464         0.991671        -0.380936
 C        -2.491197         0.223099         0.478963
 H         0.540774        -0.761718         0.335317
 H        -0.665374         2.542222         1.762373
 H        -1.642805         2.675738         0.179973
 H        -0.716688         0.924461         3.022365
 H        -1.523952        -0.581330         2.959482
 H        -4.553302         1.026861         2.675045
 H        -3.677947         2.567971         2.439807
 H        -5.163464         1.703613         0.166984
 H        -3.886792         2.947926         0.281385
 H        -2.887271        -0.806371         0.410476
