19
Iteration:  2985charge 0 multiplicity 1
 O         0.047306         0.210304        -0.191995
 C        -1.059912         0.499245         0.715566
 C        -1.386138         2.014131         1.071104
 C        -2.390081         1.173029         1.822351
 C        -1.217364         0.163985         2.203994
 C        -3.755720         1.762178         2.080515
 C        -4.207632         1.852055         0.481156
 O        -3.427561         0.856477        -0.377878
 C        -2.499858         0.196213         0.565708
 H         0.329442        -0.586112         0.272256
 H        -0.556621         2.548756         1.519367
 H        -1.825227         2.684263         0.316986
 H        -0.575428         0.655301         2.921683
 H        -1.629603        -0.837544         2.422417
 H        -4.396341         1.101978         2.658934
 H        -3.602257         2.754339         2.422183
 H        -5.330822         1.659141         0.459069
 H        -3.791472         2.840194         0.239965
 H        -2.818020        -0.862428         0.727313
