19
Iteration:  2020
 O         0.144055        -0.001838         0.063215
 C        -1.044045         0.483500         0.660982
 C        -1.222773         2.030334         0.900933
 C        -2.368283         1.169187         1.742532
 C        -1.327511         0.256765         2.181733
 C        -3.772392         1.574634         2.090700
 C        -4.276556         1.867121         0.632551
 O        -3.416096         1.057909        -0.359916
 C        -2.621117         0.278251         0.494422
 H         0.427270         0.338142        -0.830005
 H        -0.455553         2.614379         1.389751
 H        -1.581389         2.604793         0.067243
 H        -0.433970         0.767810         2.767713
 H        -1.516505        -0.804759         2.488394
 H        -4.301981         0.694757         2.425540
 H        -3.981639         2.377832         2.752080
 H        -5.251355         1.436280         0.540988
 H        -4.315040         2.858874         0.193076
 H        -3.121981        -0.747740         0.647886
