19
Iteration:   540
 O         0.115838         0.072861        -0.063001
 C        -1.000710         0.554270         0.666625
 C        -1.270465         1.950573         1.152937
 C        -2.412390         1.195393         1.751295
 C        -1.296856         0.133334         2.218370
 C        -3.790814         1.812422         1.952361
 C        -4.208313         1.934625         0.409461
 O        -3.507753         0.848430        -0.320620
 C        -2.560905         0.201571         0.564346
 H         0.790814         0.713596         0.111031
 H        -0.475397         2.289725         1.880480
 H        -1.502460         2.675730         0.406892
 H        -0.552039         0.591862         2.899653
 H        -1.532906        -0.890423         2.284733
 H        -4.469251         0.996458         2.361637
 H        -3.898243         2.706548         2.607268
 H        -5.321005         1.681001         0.347315
 H        -4.029139         2.918540         0.038825
 H        -2.738682        -0.861743         0.747017
