19
Iteration:  2339
 O         0.057949        -0.188609        -0.034717
 C        -0.996093         0.524256         0.601318
 C        -1.331839         2.071854         1.013950
 C        -2.382517         1.206884         1.734796
 C        -1.177505         0.298383         2.204460
 C        -3.743512         1.651440         2.104038
 C        -4.469376         1.582277         0.583056
 O        -3.364918         1.143253        -0.391165
 C        -2.484317         0.404574         0.469560
 H         0.771689         0.504542         0.005421
 H        -0.722883         2.693326         1.728418
 H        -1.704095         2.750055         0.162166
 H        -0.416984         0.704377         2.849747
 H        -1.409493        -0.676941         2.669721
 H        -4.267525         1.125556         2.841635
 H        -3.642343         2.687561         2.465263
 H        -5.419193         0.956933         0.668246
 H        -4.772952         2.622635         0.338433
 H        -2.960157        -0.569502         0.676856
