19
Iteration:   820
 O         0.072696         0.083108        -0.170814
 C        -0.877828         0.567655         0.786418
 C        -1.322297         1.989198         1.080245
 C        -2.405061         1.139414         1.674402
 C        -1.387349         0.270930         2.356512
 C        -3.779563         1.681979         1.971253
 C        -4.163553         1.865975         0.481851
 O        -3.533927         0.858281        -0.311380
 C        -2.502267         0.266180         0.448644
 H         0.940675        -0.213376         0.266095
 H        -0.711122         2.622770         1.777151
 H        -1.495748         2.458154         0.118875
 H        -0.716036         0.752442         3.126204
 H        -1.754514        -0.659350         2.697295
 H        -4.274450         0.868152         2.467020
 H        -3.769023         2.602869         2.572390
 H        -5.277031         1.859665         0.255664
 H        -3.840050         2.929644         0.289641
 H        -2.952511        -0.708520         0.679052
