19
Iteration:  4381
 O         0.026368         0.053329        -0.076318
 C        -0.960824         0.564016         0.739188
 C        -1.372281         1.947155         1.027939
 C        -2.357968         1.154226         1.820032
 C        -1.303715         0.272352         2.298662
 C        -3.793455         1.738077         1.996590
 C        -4.383933         1.643869         0.595767
 O        -3.211175         1.067281        -0.443887
 C        -2.485754         0.271063         0.520534
 H        -0.108270         0.192189        -1.054324
 H        -0.695327         2.572323         1.618241
 H        -1.705883         2.544959         0.173093
 H        -0.574978         0.685338         3.047489
 H        -1.532482        -0.710530         2.592818
 H        -4.416363         1.056354         2.638752
 H        -3.728493         2.744465         2.328848
 H        -5.340169         1.121711         0.522837
 H        -4.661181         2.515555         0.004767
 H        -2.852778        -0.783863         0.604355
