19
Iteration:   168
 O         0.076778        -0.016639         0.070973
 C        -1.095151         0.465057         0.764300
 C        -1.328442         1.960044         0.954698
 C        -2.349324         1.213251         1.790795
 C        -1.151114         0.227021         2.217608
 C        -3.826902         1.639508         2.018962
 C        -4.314751         1.774419         0.430971
 O        -3.325754         1.111096        -0.384901
 C        -2.552542         0.323131         0.547273
 H         0.014087         0.353381        -0.796217
 H        -0.489919         2.408990         1.545877
 H        -1.786841         2.470972         0.052255
 H        -0.343130         0.660380         2.835307
 H        -1.350600        -0.810547         2.649532
 H        -4.367019         0.935272         2.640262
 H        -3.959567         2.602845         2.591426
 H        -5.323495         1.364893         0.203913
 H        -4.311018         2.804443         0.152839
 H        -3.152958        -0.576085         0.593622
