19
Iteration:  2534charge 0 multiplicity 1
 O        -0.031826        -0.043942        -0.258662
 C        -0.961326         0.553042         0.733773
 C        -1.175640         2.027308         1.099647
 C        -2.302044         1.229593         1.839540
 C        -1.145440         0.143052         2.291679
 C        -3.771244         1.891273         1.991774
 C        -4.549147         1.435435         0.507092
 O        -3.373922         1.100049        -0.381206
 C        -2.531719         0.374603         0.556445
 H         0.805431         0.338145         0.098397
 H        -0.606843         2.529712         1.854044
 H        -1.525565         2.667232         0.275815
 H        -0.443461         0.566794         3.019567
 H        -1.675732        -0.720894         2.523206
 H        -4.284519         1.461456         2.871458
 H        -3.716669         3.041747         2.072432
 H        -5.214245         0.693342         0.872450
 H        -5.180595         2.218779         0.044397
 H        -2.904506        -0.591172         0.491474
