19
Iteration:  3864
 O         0.107591         0.228476        -0.062078
 C        -0.975838         0.561218         0.725085
 C        -1.372270         1.986468         0.884371
 C        -2.384725         1.117628         1.808512
 C        -1.179538         0.143261         2.319999
 C        -3.773160         1.648990         2.009817
 C        -4.215849         1.835643         0.540125
 O        -3.512313         1.015449        -0.343042
 C        -2.572339         0.180239         0.492928
 H         0.363602        -0.664781         0.196954
 H        -0.595559         2.612603         1.334517
 H        -1.805237         2.326475        -0.096664
 H        -0.393668         0.493507         3.039351
 H        -1.474721        -0.901298         2.478409
 H        -4.462815         1.041335         2.619743
 H        -3.769479         2.674758         2.423550
 H        -5.357192         1.800901         0.475754
 H        -4.096676         2.935093         0.171138
 H        -2.728458        -0.939619         0.603542
