19
Iteration:  1034charge 0 multiplicity 1
 O        -0.010250         0.071351        -0.156255
 C        -0.992467         0.502102         0.723845
 C        -1.209333         2.031593         1.189507
 C        -2.458985         1.128158         1.841403
 C        -1.225997         0.107638         2.232291
 C        -3.787970         1.818528         2.015704
 C        -4.438539         1.701569         0.419540
 O        -3.262909         1.113091        -0.440527
 C        -2.490059         0.320347         0.570511
 H         0.173745        -0.770381         0.295973
 H        -0.293907         2.468913         1.725040
 H        -1.373066         2.662590         0.374966
 H        -0.378503         0.352011         2.977490
 H        -1.706408        -0.932577         2.487735
 H        -4.484882         1.199742         2.565806
 H        -3.714881         2.792984         2.533896
 H        -5.323091         1.036768         0.391816
 H        -4.829127         2.583659        -0.083117
 H        -2.933738        -0.696936         0.493219
