19
Iteration:  4598charge 0 multiplicity 1
 O         0.134603        -0.008552         0.012279
 C        -0.897820         0.518710         0.747433
 C        -1.245374         1.993275         1.024838
 C        -2.438808         1.194736         1.669411
 C        -1.205105         0.241616         2.232172
 C        -3.852296         1.773678         2.052649
 C        -4.499289         1.526229         0.614119
 O        -3.444984         1.138697        -0.402695
 C        -2.485534         0.346862         0.354891
 H         1.007779         0.358726         0.210280
 H        -0.538539         2.371670         1.702168
 H        -1.556331         2.599893         0.235839
 H        -0.668603         0.849163         3.082387
 H        -1.447376        -0.764348         2.480490
 H        -4.189449         1.037873         2.810349
 H        -3.733106         2.770694         2.284687
 H        -5.240108         0.748228         0.626154
 H        -4.870251         2.436827         0.112778
 H        -2.788255        -0.673354         0.484479
