19
Iteration:  2988charge 0 multiplicity 1
 O         0.054005         0.231103        -0.200902
 C        -1.055118         0.488605         0.741760
 C        -1.384872         2.019957         1.084101
 C        -2.372819         1.190886         1.818709
 C        -1.230927         0.156538         2.220470
 C        -3.726638         1.750274         2.051291
 C        -4.223547         1.853584         0.480306
 O        -3.451020         0.858554        -0.398715
 C        -2.539123         0.171835         0.560810
 H         0.459367        -0.525557         0.267701
 H        -0.497686         2.483808         1.556602
 H        -1.773995         2.614643         0.267900
 H        -0.370875         0.555054         2.939446
 H        -1.639563        -0.785950         2.459025
 H        -4.427818         1.140955         2.705571
 H        -3.579959         2.773886         2.502864
 H        -5.248455         1.683994         0.394803
 H        -3.867621         2.851099         0.264383
 H        -2.789034        -0.849686         0.870832
