19
Iteration:  3486
 O         0.101303        -0.067319         0.034647
 C        -0.979691         0.558195         0.713033
 C        -1.350397         2.067441         1.033585
 C        -2.354156         1.179800         1.741921
 C        -1.150164         0.219225         2.177132
 C        -3.713303         1.794196         1.996292
 C        -4.445592         1.478420         0.591755
 O        -3.405294         1.153380        -0.324583
 C        -2.560413         0.358591         0.429852
 H        -0.006478         0.220824        -0.882236
 H        -0.592963         2.538449         1.682437
 H        -1.570673         2.681309         0.120347
 H        -0.595849         0.489112         2.998239
 H        -1.571204        -0.765473         2.395492
 H        -4.216986         1.415132         2.911134
 H        -3.626656         2.901907         2.030992
 H        -5.002316         0.562139         0.800708
 H        -4.932308         2.377875         0.128338
 H        -2.850462        -0.710184         0.391522
