19
Iteration:  3275
 O        -0.008163         0.150666        -0.196029
 C        -1.024659         0.513281         0.703806
 C        -1.309709         1.984536         0.987306
 C        -2.389374         1.234011         1.819618
 C        -1.246759         0.166117         2.314463
 C        -3.796659         1.726899         1.976975
 C        -4.231408         1.740109         0.546517
 O        -3.418717         0.964190        -0.345186
 C        -2.497503         0.202313         0.608253
 H         0.871141         0.434153         0.076817
 H        -0.463577         2.543947         1.426724
 H        -1.572866         2.457708         0.037924
 H        -0.493531         0.571168         3.026432
 H        -1.494156        -0.827978         2.538288
 H        -4.528487         1.263499         2.696479
 H        -3.631123         2.769949         2.334795
 H        -5.281540         1.223348         0.354754
 H        -4.279559         2.702031         0.069396
 H        -2.828435        -0.828038         0.746518
