19
Iteration:  4057
 O         0.131515         0.008749        -0.070916
 C        -1.036347         0.551503         0.672175
 C        -1.218030         1.985241         1.095510
 C        -2.382902         1.195245         1.749756
 C        -1.289562         0.205191         2.259362
 C        -3.803558         1.800457         2.032046
 C        -4.389100         1.572381         0.537669
 O        -3.350344         1.122263        -0.372472
 C        -2.537474         0.280268         0.500915
 H         0.045689         0.557003        -0.876141
 H        -0.439427         2.380223         1.734547
 H        -1.455325         2.619589         0.189537
 H        -0.461060         0.505441         2.984919
 H        -1.634502        -0.743376         2.696013
 H        -4.350531         1.149209         2.763770
 H        -3.735662         2.857192         2.297199
 H        -5.227687         0.757041         0.650722
 H        -4.814024         2.434277        -0.006574
 H        -3.014740        -0.737561         0.626190
