19
Iteration:    13
 O         0.016248        -0.107857        -0.024447
 C        -0.950561         0.560244         0.820695
 C        -1.278784         2.112477         0.967343
 C        -2.365948         1.264239         1.814304
 C        -1.144037         0.166527         2.208382
 C        -3.788554         1.743192         2.007361
 C        -4.404034         1.687975         0.420967
 O        -3.401844         1.005011        -0.385078
 C        -2.590035         0.353459         0.596998
 H         0.885971         0.468206        -0.029000
 H        -0.617084         2.912041         1.378698
 H        -1.571485         2.239768        -0.083524
 H        -0.325897         0.466602         2.846527
 H        -1.504788        -0.927109         2.274057
 H        -4.252625         0.940469         2.529709
 H        -3.878630         2.685204         2.599409
 H        -5.386871         1.186987         0.397325
 H        -4.479136         2.638436        -0.023144
 H        -2.918486        -0.668398         0.768230
