19
Iteration:  2624charge 0 multiplicity 1
 O         0.110498        -0.064368        -0.040989
 C        -0.968688         0.526679         0.627629
 C        -1.240813         1.984373         0.928500
 C        -2.364791         1.203667         1.762586
 C        -1.222194         0.343136         2.207730
 C        -3.781679         1.681993         2.059773
 C        -4.372926         1.723786         0.605488
 O        -3.470041         1.076447        -0.324736
 C        -2.582188         0.255518         0.504130
 H         0.862617         0.527845        -0.027791
 H        -0.617308         2.669641         1.596698
 H        -1.624818         2.523496         0.062934
 H        -0.436313         0.797828         2.775242
 H        -1.461219        -0.700553         2.528886
 H        -4.231311         0.759130         2.586457
 H        -3.934867         2.501507         2.785849
 H        -5.311485         1.158501         0.513069
 H        -4.723402         2.674442         0.126446
 H        -2.849527        -0.780542         0.686042
