19
Iteration:  4909charge 0 multiplicity 1
 O         0.138271         0.005660         0.036898
 C        -0.980032         0.595801         0.766538
 C        -1.242643         2.080497         0.971788
 C        -2.408956         1.246305         1.712270
 C        -1.300180         0.102959         2.195547
 C        -3.766770         1.682402         1.946075
 C        -4.360471         1.614427         0.573166
 O        -3.440779         1.094842        -0.355231
 C        -2.492946         0.304972         0.516801
 H         0.468392         0.803555        -0.460482
 H        -0.589609         2.629064         1.574829
 H        -1.605611         2.733503         0.165834
 H        -0.768091         0.181202         3.067528
 H        -1.450971        -1.019817         2.289891
 H        -4.189899         0.894572         2.530654
 H        -3.916215         2.677503         2.441751
 H        -5.302745         1.003167         0.553296
 H        -4.696221         2.575463         0.117100
 H        -2.958930        -0.656709         0.763829
