19
Iteration:  4529
 O        -0.077744         0.070100        -0.189090
 C        -0.942981         0.538489         0.720235
 C        -1.239456         2.084462         1.138347
 C        -2.355303         1.202428         1.819738
 C        -1.208149         0.254223         2.410691
 C        -3.786190         1.644369         1.927864
 C        -4.423774         1.644341         0.464683
 O        -3.403564         0.951961        -0.407325
 C        -2.436232         0.319012         0.516347
 H         0.832836         0.418508         0.004100
 H        -0.438707         2.402165         1.787393
 H        -1.729115         2.732252         0.325418
 H        -0.572830         0.783005         3.085859
 H        -1.336568        -0.865771         2.632071
 H        -4.342142         0.891886         2.499506
 H        -3.968630         2.724501         2.199593
 H        -5.365176         1.230433         0.169797
 H        -4.290452         2.669060         0.127467
 H        -2.866491        -0.633900         0.864973
