19
Iteration:  4205charge 0 multiplicity 1
 O        -0.019935         0.067322        -0.059874
 C        -0.967961         0.526774         0.788809
 C        -1.354780         2.050953         0.988329
 C        -2.408322         1.147229         1.776870
 C        -1.231078         0.206600         2.272520
 C        -3.819515         1.587470         1.955162
 C        -4.160524         1.852051         0.461743
 O        -3.424038         0.941759        -0.302711
 C        -2.508861         0.282386         0.546038
 H         0.442848         0.747419        -0.616626
 H        -0.591325         2.563699         1.585053
 H        -1.648789         2.631340         0.036370
 H        -0.439914         0.664463         2.947479
 H        -1.600899        -0.856718         2.421076
 H        -4.404597         0.781900         2.468919
 H        -4.008624         2.545948         2.486468
 H        -5.234023         1.816709         0.272804
 H        -3.701982         2.843252         0.295058
 H        -2.780091        -0.776349         0.571636
