19
Iteration:  2997charge 0 multiplicity 1
 O         0.048149         0.267712        -0.174774
 C        -1.011279         0.501393         0.722496
 C        -1.310274         1.989916         1.059765
 C        -2.345749         1.164413         1.810052
 C        -1.245394         0.163336         2.303228
 C        -3.698075         1.738490         1.983243
 C        -4.214769         1.851316         0.504016
 O        -3.504439         0.863360        -0.371055
 C        -2.633178         0.187972         0.552927
 H         0.826021        -0.270441         0.043277
 H        -0.584976         2.430982         1.748292
 H        -1.561419         2.508539         0.146293
 H        -0.272020         0.261925         2.806600
 H        -1.578216        -0.821444         2.585155
 H        -4.379425         1.152747         2.633648
 H        -3.710927         2.696199         2.463392
 H        -5.284889         1.680915         0.270377
 H        -4.130039         2.850149         0.033336
 H        -3.004530        -0.789543         0.903764
