19
Iteration:  3175charge 0 multiplicity 1
 O         0.037316         0.103407        -0.129027
 C        -1.026291         0.507207         0.698018
 C        -1.269504         1.976151         1.018249
 C        -2.414369         1.165021         1.752708
 C        -1.285769         0.171845         2.213199
 C        -3.672754         1.791065         2.054920
 C        -4.410191         1.594359         0.594009
 O        -3.356924         1.083452        -0.367243
 C        -2.499263         0.295258         0.511176
 H         0.786131         0.058738         0.517586
 H        -0.420927         2.398934         1.566983
 H        -1.408309         2.420161         0.016741
 H        -0.676975         0.790525         2.911737
 H        -1.801259        -0.657009         2.563793
 H        -4.214773         1.457907         2.976841
 H        -3.753116         2.912399         2.237495
 H        -5.312779         0.867145         0.499260
 H        -4.796120         2.429400        -0.056904
 H        -2.828807        -0.720581         0.727461
