19
Iteration:  4900charge 0 multiplicity 1
 O         0.084270         0.002153         0.032258
 C        -0.967395         0.516876         0.737347
 C        -1.313329         2.052820         1.019533
 C        -2.406003         1.207720         1.714389
 C        -1.251651         0.183686         2.192072
 C        -3.813704         1.667956         2.024170
 C        -4.406786         1.623713         0.511532
 O        -3.323347         1.114752        -0.325213
 C        -2.497138         0.331857         0.503895
 H         0.398257         0.682330        -0.614699
 H        -0.657203         2.719283         1.611847
 H        -1.503368         2.507451         0.069083
 H        -0.472076         0.521013         2.847947
 H        -1.693437        -0.823038         2.176742
 H        -4.269588         0.938895         2.671401
 H        -3.823482         2.675829         2.445496
 H        -5.244666         0.906887         0.337701
 H        -4.619162         2.618423         0.175103
 H        -2.892695        -0.676702         0.673494
