19
Iteration:  3288charge 0 multiplicity 1
 O         0.006853         0.177695        -0.201076
 C        -0.979963         0.501097         0.694088
 C        -1.300146         1.936804         1.051939
 C        -2.390573         1.078195         1.813413
 C        -1.220390         0.212035         2.273731
 C        -3.707153         1.837961         2.006150
 C        -4.289895         1.807834         0.420214
 O        -3.424435         0.840594        -0.288332
 C        -2.575194         0.253335         0.562012
 H         0.777570         0.628350         0.221042
 H        -0.613561         2.446938         1.773581
 H        -1.766632         2.648210         0.345616
 H        -0.501642         0.715611         2.836697
 H        -1.443857        -0.779632         2.607039
 H        -4.361485         1.137010         2.585294
 H        -3.785650         2.812167         2.500931
 H        -5.397275         1.532201         0.486933
 H        -4.294866         2.733965        -0.034005
 H        -2.852667        -0.747106         0.776005
