19
Iteration:  3309
 O         0.073979         0.111388        -0.153083
 C        -0.984013         0.586332         0.719083
 C        -1.339108         2.055119         1.116898
 C        -2.416463         1.089272         1.748296
 C        -1.189520         0.169412         2.228837
 C        -3.789802         1.809016         1.970618
 C        -4.159499         1.877413         0.480396
 O        -3.609783         0.772467        -0.287637
 C        -2.498612         0.172916         0.546358
 H         0.819397         0.748290        -0.233371
 H        -0.630734         2.463560         1.854403
 H        -1.771625         2.771252         0.427351
 H        -0.456410         0.647705         2.835764
 H        -1.241506        -0.864303         2.366071
 H        -4.579635         1.335111         2.594118
 H        -3.554511         2.840632         2.262727
 H        -5.311308         1.711255         0.383584
 H        -3.913424         2.878815         0.202685
 H        -2.752039        -0.846192         0.764748
