19
Iteration:  2478charge 0 multiplicity 1
 O         0.117038        -0.010298        -0.108187
 C        -0.961439         0.470110         0.723312
 C        -1.286477         1.980354         0.817335
 C        -2.396450         1.212096         1.757421
 C        -1.160447         0.263493         2.220024
 C        -3.852880         1.576917         2.092050
 C        -4.366318         1.760817         0.656210
 O        -3.470826         1.076294        -0.385146
 C        -2.503893         0.364622         0.527818
 H         0.963316        -0.038848         0.394446
 H        -0.562203         2.579010         1.315779
 H        -1.794161         2.483152        -0.027055
 H        -0.565655         0.814533         3.010446
 H        -1.362693        -0.648161         2.725585
 H        -4.450947         0.906716         2.727542
 H        -4.084072         2.571542         2.639661
 H        -5.412947         1.450045         0.607690
 H        -4.304829         2.838113         0.364626
 H        -2.908818        -0.599310         0.728924
