19
Iteration:  3079charge 0 multiplicity 1
 O         0.045713        -0.140187        -0.131763
 C        -0.971878         0.511628         0.681087
 C        -1.302508         2.062131         0.909342
 C        -2.433464         1.202897         1.754336
 C        -1.164285         0.319936         2.262073
 C        -3.917705         1.534756         2.071306
 C        -4.286251         1.747254         0.619849
 O        -3.353449         1.136238        -0.351264
 C        -2.514966         0.339900         0.554594
 H         0.881100         0.382785        -0.014172
 H        -0.509553         2.651203         1.501496
 H        -1.611514         2.581023        -0.056258
 H        -0.697466         1.075395         3.002764
 H        -1.467134        -0.748898         2.630180
 H        -4.331309         0.532238         2.447100
 H        -4.228130         2.423238         2.782852
 H        -5.286768         1.368331         0.324445
 H        -4.208731         2.837910         0.462838
 H        -3.001978        -0.709762         0.546706
