19
Iteration:  2067charge 0 multiplicity 1
 O        -0.018579         0.032159        -0.222772
 C        -1.036415         0.605054         0.631411
 C        -1.362541         2.012949         1.091176
 C        -2.435698         1.076401         1.799766
 C        -1.286270         0.301824         2.278437
 C        -3.733466         1.686000         2.012692
 C        -4.168385         1.869510         0.568876
 O        -3.410100         0.878698        -0.349412
 C        -2.459181         0.281857         0.534155
 H         0.710398        -0.285661         0.353223
 H        -0.701042         2.443564         1.826752
 H        -1.612605         2.756518         0.370504
 H        -0.628199         0.826041         2.933547
 H        -1.564291        -0.709118         2.610041
 H        -4.479922         1.045133         2.475005
 H        -3.670919         2.630018         2.639553
 H        -5.223450         1.672118         0.344108
 H        -4.019412         2.834993         0.117180
 H        -2.652334        -0.839285         0.611519
