19
Iteration:  1805
 O         0.064902         0.050302        -0.232627
 C        -0.946790         0.516802         0.684363
 C        -1.369645         2.000783         1.203277
 C        -2.443179         1.104548         1.808609
 C        -1.184132         0.027288         2.201914
 C        -3.965423         1.751821         2.057031
 C        -4.217510         2.018059         0.490768
 O        -3.313562         0.992762        -0.351424
 C        -2.555023         0.285799         0.502626
 H         0.780307        -0.203971         0.342238
 H        -0.765012         2.555082         1.978929
 H        -1.780065         2.692432         0.481526
 H        -0.462972         0.337576         2.901564
 H        -1.488088        -0.986651         2.322062
 H        -4.648892         0.963196         2.379277
 H        -3.816678         2.635925         2.771539
 H        -5.214576         1.666313         0.190161
 H        -4.005628         2.919162        -0.031310
 H        -2.917491        -0.772138         0.751621
