19
Iteration:  3116
 O        -0.090771         0.033660        -0.129438
 C        -1.025667         0.575415         0.707254
 C        -1.216090         2.059005         1.033774
 C        -2.386008         1.203839         1.749489
 C        -1.255133         0.179007         2.257809
 C        -3.797567         1.758771         2.007869
 C        -4.269253         1.663527         0.555561
 O        -3.360983         0.997378        -0.341379
 C        -2.502308         0.263528         0.511989
 H         0.693181         0.613054        -0.109820
 H        -0.344402         2.415737         1.578110
 H        -1.392453         2.675437         0.165122
 H        -0.682012         0.536220         3.083143
 H        -1.431339        -0.935639         2.500175
 H        -4.274386         1.004460         2.616098
 H        -3.876420         2.749028         2.435605
 H        -5.289345         1.052219         0.614487
 H        -4.436295         2.717219         0.133563
 H        -2.798671        -0.805989         0.761351
