19
Iteration:  2023charge 0 multiplicity 1
 O         0.136568        -0.003267         0.068115
 C        -1.062242         0.478076         0.650650
 C        -1.219688         2.012834         0.886505
 C        -2.372327         1.190242         1.755921
 C        -1.302154         0.251927         2.177685
 C        -3.794012         1.555965         2.067019
 C        -4.276275         1.870452         0.620705
 O        -3.406108         1.057541        -0.351682
 C        -2.604070         0.292083         0.507312
 H         0.395856         0.508210        -0.726938
 H        -0.471796         2.601197         1.410206
 H        -1.585175         2.489411         0.013227
 H        -0.447175         0.645400         2.687652
 H        -1.497211        -0.763070         2.489887
 H        -4.306978         0.692203         2.485880
 H        -4.018144         2.420041         2.768447
 H        -5.315151         1.493385         0.625430
 H        -4.282945         2.894521         0.257062
 H        -3.065870        -0.714542         0.676807
