19
Iteration:   691
 O         0.105041        -0.013281         0.001516
 C        -0.985719         0.545281         0.731805
 C        -1.272918         1.963648         1.108848
 C        -2.393286         1.124580         1.767237
 C        -1.287838         0.148396         2.253899
 C        -3.749324         1.917192         1.879127
 C        -4.430983         1.561606         0.515213
 O        -3.335962         1.108682        -0.339914
 C        -2.546361         0.312545         0.465084
 H         0.512208         0.614847        -0.558947
 H        -0.623808         2.605855         1.718394
 H        -1.688752         2.545371         0.312111
 H        -0.536444         0.247534         3.104565
 H        -1.738264        -0.831782         2.363911
 H        -4.362901         1.899144         2.752147
 H        -3.430937         2.947198         1.903263
 H        -5.132635         0.851146         0.804896
 H        -4.933272         2.416263         0.078218
 H        -2.847879        -0.748272         0.419123
