19
Iteration:  3778
 O         0.054816        -0.011066        -0.172627
 C        -1.062319         0.493196         0.615970
 C        -1.331850         1.954415         1.036792
 C        -2.368714         1.193236         1.809450
 C        -1.277663         0.285055         2.330219
 C        -3.802769         1.682479         1.995827
 C        -4.300628         1.589905         0.540090
 O        -3.273911         1.136475        -0.312792
 C        -2.527243         0.337446         0.538888
 H         0.606155         0.759010        -0.321584
 H        -0.467546         2.427815         1.496340
 H        -1.761849         2.633375         0.270257
 H        -0.510939         0.709706         2.936586
 H        -1.440694        -0.739796         2.708988
 H        -4.411087         1.042339         2.622893
 H        -3.812084         2.722037         2.385803
 H        -5.263385         0.987366         0.500661
 H        -4.696822         2.497304         0.095442
 H        -3.155460        -0.521090         0.795999
