19
Iteration:   692charge 0 multiplicity 1
 O         0.108763        -0.011764         0.000412
 C        -0.996310         0.544794         0.731228
 C        -1.269616         1.966663         1.108170
 C        -2.390712         1.128974         1.768163
 C        -1.288123         0.139668         2.250483
 C        -3.755890         1.925366         1.881802
 C        -4.434513         1.556972         0.511846
 O        -3.333469         1.108209        -0.340472
 C        -2.539806         0.316546         0.475802
 H         0.549761         0.611652        -0.549207
 H        -0.590903         2.580007         1.705207
 H        -1.714826         2.533349         0.282043
 H        -0.522036         0.232837         3.070563
 H        -1.746313        -0.850984         2.354246
 H        -4.413052         1.892049         2.760444
 H        -3.406394         2.954519         1.902682
 H        -5.148372         0.827007         0.809425
 H        -4.930920         2.415110         0.078549
 H        -2.856461        -0.733149         0.435266
