19
Iteration:   552
 O         0.116043         0.156663        -0.066427
 C        -1.067635         0.451869         0.715675
 C        -1.249304         2.011955         1.025163
 C        -2.445421         1.122229         1.840208
 C        -1.192379         0.030808         2.180848
 C        -3.846948         1.793653         1.935087
 C        -4.229785         1.954294         0.398875
 O        -3.459382         0.838158        -0.298490
 C        -2.575817         0.309871         0.607338
 H         0.841342         0.527910         0.495847
 H        -0.542608         2.531950         1.742626
 H        -1.548567         2.689873         0.233552
 H        -0.315304         0.234614         2.802897
 H        -1.546562        -0.899856         2.538939
 H        -4.630528         1.104491         2.438065
 H        -3.787445         2.752912         2.527992
 H        -5.349441         1.918550         0.075578
 H        -3.808954         2.750294        -0.146589
 H        -3.014864        -0.675514         0.824425
