19
Iteration:  2044
 O         0.050537         0.005848        -0.082497
 C        -0.940694         0.473551         0.758913
 C        -1.340019         1.998154         0.902379
 C        -2.357514         1.206759         1.761217
 C        -1.137607         0.168907         2.221851
 C        -3.873319         1.613849         2.017099
 C        -4.292127         1.860321         0.524641
 O        -3.463632         1.054889        -0.274813
 C        -2.538249         0.300082         0.568366
 H         0.888315         0.481204        -0.116240
 H        -0.578452         2.584761         1.371324
 H        -1.704164         2.531802         0.086871
 H        -0.410595         0.552211         2.990458
 H        -1.505180        -0.868096         2.402810
 H        -4.337033         0.780276         2.483119
 H        -4.128140         2.521726         2.621623
 H        -5.265462         1.776463         0.064194
 H        -4.041357         2.897691         0.283082
 H        -3.035988        -0.736922         0.614384
