19
Iteration:  3564charge 0 multiplicity 1
 O         0.146433         0.040108        -0.058381
 C        -0.924516         0.559823         0.652388
 C        -1.470083         2.054008         1.033980
 C        -2.466891         1.054405         1.758772
 C        -1.116049         0.301639         2.216187
 C        -3.869280         1.722680         2.022251
 C        -4.186889         1.893769         0.516859
 O        -3.478069         0.879563        -0.258800
 C        -2.541021         0.159906         0.554667
 H         0.049965         0.255619        -1.014387
 H        -0.899072         2.575073         1.886873
 H        -1.791751         2.614022         0.134949
 H        -0.355794         0.839644         2.687302
 H        -1.187449        -0.795757         2.264788
 H        -4.505735         0.964116         2.543337
 H        -3.881617         2.719054         2.548118
 H        -5.172502         2.030335         0.006819
 H        -3.796171         3.013483         0.433002
 H        -2.736563        -0.940100         0.666242
