19
Iteration:  1126charge 0 multiplicity 1
 O         0.220121         0.146606        -0.043832
 C        -0.992061         0.568994         0.744806
 C        -1.341738         1.951439         1.076066
 C        -2.460483         1.068660         1.732143
 C        -1.391269         0.113373         2.204308
 C        -3.741298         1.749993         2.019822
 C        -4.112293         1.903869         0.512697
 O        -3.538875         0.940364        -0.338048
 C        -2.522803         0.299594         0.452477
 H         0.013791        -0.692106        -0.481199
 H        -0.736957         2.435444         1.816103
 H        -1.522649         2.630722         0.200548
 H        -0.879637         0.700919         2.955066
 H        -1.668701        -0.900485         2.495288
 H        -4.445126         0.958244         2.463876
 H        -3.584196         2.591193         2.765574
 H        -5.185533         1.860044         0.380523
 H        -3.801491         2.895075         0.197456
 H        -2.822986        -0.783044         0.543136
