19
Iteration:  2628
 O         0.101664        -0.052317        -0.045539
 C        -0.981097         0.505386         0.652580
 C        -1.269214         1.987853         0.917257
 C        -2.362754         1.204876         1.757113
 C        -1.221682         0.326120         2.213894
 C        -3.747431         1.660317         2.061553
 C        -4.347178         1.731142         0.608607
 O        -3.450420         1.042389        -0.347489
 C        -2.586855         0.312532         0.524910
 H         0.881266         0.553560        -0.027074
 H        -0.610057         2.623612         1.575667
 H        -1.651204         2.558089         0.027099
 H        -0.492351         0.937195         2.763658
 H        -1.537232        -0.666441         2.519418
 H        -4.266722         0.777116         2.442402
 H        -3.968418         2.471220         2.739114
 H        -5.400229         1.178119         0.654644
 H        -4.693962         2.710097         0.278168
 H        -2.963301        -0.770043         0.616557
