19
Iteration:  4472
 O         0.172992         0.089974         0.030297
 C        -0.970702         0.466259         0.740522
 C        -1.424190         1.964880         0.914230
 C        -2.428496         1.119589         1.801748
 C        -1.144000         0.291695         2.203585
 C        -3.808419         1.629926         2.052216
 C        -4.208569         1.876712         0.508834
 O        -3.519590         0.934454        -0.333936
 C        -2.559795         0.263329         0.450867
 H         0.809756         0.801024         0.022113
 H        -0.810097         2.781414         1.421006
 H        -1.598319         2.501411         0.008619
 H        -0.309398         0.721265         2.715303
 H        -1.484680        -0.639944         2.712399
 H        -4.577474         0.869907         2.247746
 H        -4.160184         2.458300         2.761726
 H        -5.219759         1.602679         0.365357
 H        -4.170116         2.903654         0.151755
 H        -2.883057        -0.792227         0.526298
