19
Iteration:  3339charge 0 multiplicity 1
 O         0.116155         0.075846        -0.057817
 C        -0.992003         0.567037         0.715159
 C        -1.323783         2.061798         0.937070
 C        -2.361922         1.254445         1.718432
 C        -1.283118         0.233101         2.214921
 C        -3.781471         1.581160         1.994484
 C        -4.140347         1.949307         0.525439
 O        -3.566085         0.831152        -0.262366
 C        -2.555092         0.165942         0.582959
 H         0.571745         0.759934        -0.557515
 H        -0.595684         2.518211         1.600238
 H        -1.574113         2.613487         0.046671
 H        -0.394851         0.470907         2.912844
 H        -1.688278        -0.769951         2.361052
 H        -4.341658         0.698399         2.338589
 H        -4.001046         2.360567         2.740310
 H        -5.242833         1.927744         0.324144
 H        -3.951932         3.031627         0.402705
 H        -2.812722        -0.927414         0.829752
