19
Iteration:  4079
 O        -0.009395        -0.072382        -0.047054
 C        -1.011787         0.564231         0.734876
 C        -1.426483         2.044765         0.974161
 C        -2.363029         1.170099         1.786314
 C        -1.262568         0.191180         2.196964
 C        -3.797579         1.703463         1.995745
 C        -4.271878         1.549651         0.534465
 O        -3.197378         1.176323        -0.304698
 C        -2.503191         0.398685         0.544077
 H        -0.068257         0.491601        -0.843208
 H        -0.700400         2.624716         1.532119
 H        -1.806171         2.621996         0.086962
 H        -0.579161         0.509398         3.047019
 H        -1.561956        -0.835901         2.476504
 H        -4.346326         1.078818         2.739826
 H        -3.689986         2.739904         2.355140
 H        -5.133977         0.814242         0.438277
 H        -4.769543         2.454500         0.107032
 H        -2.866663        -0.669317         0.629114
