19
Iteration:  1694charge 0 multiplicity 1
 O         0.239444         0.029043         0.071314
 C        -0.969710         0.483935         0.682940
 C        -1.261634         2.046048         1.074897
 C        -2.407151         1.167374         1.730356
 C        -1.471944        -0.008766         2.178717
 C        -3.764803         1.715176         2.056393
 C        -4.358695         1.781350         0.629488
 O        -3.392960         1.185918        -0.347894
 C        -2.509622         0.312978         0.302192
 H         0.117249        -0.301363        -0.872957
 H        -0.589096         2.459430         1.800547
 H        -1.554587         2.778524         0.242859
 H        -0.672278         0.330336         2.844684
 H        -1.899963        -0.906454         2.400743
 H        -4.317096         1.079684         2.799995
 H        -3.578252         2.753503         2.487067
 H        -5.391086         1.368523         0.594741
 H        -4.428215         2.790058         0.293322
 H        -2.778928        -0.807217         0.114617
