19
Iteration:   485
 O         0.166613        -0.062660         0.109521
 C        -1.091301         0.487151         0.649764
 C        -1.346910         2.013243         0.968501
 C        -2.382675         1.206021         1.742159
 C        -1.216688         0.226027         2.174132
 C        -3.858914         1.581343         1.951434
 C        -4.246014         1.752013         0.484343
 O        -3.305803         1.183283        -0.299258
 C        -2.620570         0.341390         0.587052
 H        -0.132359        -0.040084        -0.840161
 H        -0.561624         2.542361         1.561843
 H        -1.596120         2.646139         0.160029
 H        -0.321178         0.523321         2.752538
 H        -1.441596        -0.712191         2.577201
 H        -4.444855         0.694228         2.376233
 H        -3.958706         2.553417         2.493657
 H        -5.322378         1.371024         0.275779
 H        -4.262553         2.815488         0.323798
 H        -3.045772        -0.651168         0.809197
