19
Iteration:  3760charge 0 multiplicity 1
 O        -0.019207         0.125428        -0.136603
 C        -1.004358         0.483352         0.762485
 C        -1.267137         1.949870         1.040809
 C        -2.379853         1.078510         1.780236
 C        -1.242511         0.198727         2.287727
 C        -3.698196         1.889985         2.062647
 C        -4.399386         1.603848         0.507892
 O        -3.337178         1.080515        -0.411395
 C        -2.551792         0.219059         0.527564
 H         0.488802         0.896599        -0.368938
 H        -0.602230         2.470270         1.797335
 H        -1.460001         2.621448         0.221615
 H        -0.440332         0.628062         2.962675
 H        -1.477458        -0.893994         2.691843
 H        -4.462003         1.453952         2.750051
 H        -3.599040         2.973156         2.299646
 H        -5.171644         0.784730         0.568777
 H        -4.767717         2.493991        -0.048035
 H        -2.767498        -0.849374         0.392812
