19
Iteration:   334
 O         0.173000        -0.061355         0.022419
 C        -0.947735         0.444950         0.730505
 C        -1.109693         2.046327         1.061156
 C        -2.378785         1.287103         1.750893
 C        -1.229124         0.219854         2.224583
 C        -3.922407         1.668120         1.922890
 C        -4.456623         1.702279         0.502587
 O        -3.433170         1.132500        -0.332541
 C        -2.541786         0.430362         0.471901
 H        -0.123207        -0.859265        -0.508164
 H        -0.213313         2.394410         1.733821
 H        -1.337407         2.557476         0.107867
 H        -0.394349         0.504589         2.994266
 H        -1.612129        -0.834620         2.523825
 H        -4.358953         0.777713         2.491460
 H        -4.294783         2.566271         2.494695
 H        -5.397906         1.079575         0.475295
 H        -4.687807         2.670390         0.085433
 H        -2.855105        -0.614213         0.725969
