19
Iteration:  3611charge 0 multiplicity 1
 O         0.074164         0.203863        -0.152130
 C        -0.990466         0.543987         0.692569
 C        -1.276485         2.030860         1.037500
 C        -2.380644         1.270962         1.747202
 C        -1.352270         0.142918         2.261060
 C        -3.789723         1.686209         2.001614
 C        -4.249499         1.759379         0.542460
 O        -3.365521         0.838396        -0.279128
 C        -2.507262         0.219066         0.567503
 H        -0.245086         0.045979        -1.037576
 H        -0.480708         2.430062         1.696561
 H        -1.586810         2.714890         0.244067
 H        -0.666335         0.532929         3.060700
 H        -1.834865        -0.759713         2.451914
 H        -4.464273         1.149119         2.669135
 H        -3.662041         2.707931         2.311822
 H        -5.332477         1.581329         0.502899
 H        -4.188692         2.795057         0.080592
 H        -2.792933        -0.761589         0.858015
