19
Iteration:  3652charge 0 multiplicity 1
 O         0.043779        -0.070878         0.064437
 C        -1.052429         0.549382         0.680069
 C        -1.313197         2.133238         1.006290
 C        -2.357366         1.166860         1.762526
 C        -1.127974         0.315954         2.191380
 C        -3.810563         1.539243         1.980573
 C        -4.400069         1.660318         0.572073
 O        -3.340559         1.153617        -0.326133
 C        -2.505066         0.355704         0.455885
 H        -0.257517        -0.419425        -0.795775
 H        -0.495864         2.438663         1.721204
 H        -1.664175         2.705545         0.175611
 H        -0.292967         0.739383         2.739649
 H        -1.195700        -0.779792         2.339737
 H        -4.310520         0.800682         2.649033
 H        -3.893021         2.530932         2.475811
 H        -5.169143         0.920304         0.336903
 H        -4.693617         2.727860         0.228682
 H        -2.953550        -0.672852         0.672227
