19
Iteration:  1174
 O         0.018641         0.209504        -0.209756
 C        -1.039872         0.465923         0.770475
 C        -1.281947         1.924693         1.178923
 C        -2.350621         1.088151         1.817014
 C        -1.270052         0.144653         2.249189
 C        -3.911993         1.715602         1.922577
 C        -4.093238         1.890169         0.437914
 O        -3.336376         1.014453        -0.332778
 C        -2.622080         0.265184         0.586860
 H         0.179523        -0.769449        -0.335757
 H        -0.568237         2.362679         2.010124
 H        -1.559121         2.676089         0.450057
 H        -0.432129         0.473002         2.873442
 H        -1.514595        -0.903141         2.387892
 H        -4.553244         1.009554         2.534327
 H        -3.973551         2.751567         2.273665
 H        -5.187643         1.639430         0.258559
 H        -3.918397         3.006201         0.109701
 H        -3.028649        -0.799392         0.695390
