19
Iteration:   354charge 0 multiplicity 1
 O         0.066949         0.005928         0.078598
 C        -1.007813         0.545324         0.712923
 C        -1.247655         2.029696         1.018089
 C        -2.374429         1.195637         1.693418
 C        -1.401272         0.216541         2.237149
 C        -3.663667         1.685078         2.068533
 C        -4.362194         1.648213         0.537332
 O        -3.342999         1.125870        -0.440227
 C        -2.489113         0.357374         0.444001
 H        -0.393125        -0.742091        -0.259140
 H        -0.503875         2.414405         1.738776
 H        -1.511794         2.729211         0.194296
 H        -0.625795         0.507281         2.960513
 H        -1.738634        -0.799101         2.383304
 H        -4.187742         1.062309         2.826467
 H        -3.771353         2.754112         2.362427
 H        -5.203136         0.892144         0.454660
 H        -4.686721         2.585656         0.115685
 H        -2.877479        -0.680940         0.605815
