19
Iteration:   176charge 0 multiplicity 1
 O         0.050725         0.008076         0.097114
 C        -0.993829         0.491685         0.725202
 C        -1.310626         1.923016         0.974198
 C        -2.382055         1.188368         1.831834
 C        -1.093337         0.207514         2.269221
 C        -3.830090         1.631022         1.973164
 C        -4.335816         1.816873         0.447873
 O        -3.362598         1.109056        -0.425646
 C        -2.622579         0.328454         0.553213
 H        -0.060309         0.034164        -0.854847
 H        -0.552739         2.497035         1.453344
 H        -1.725485         2.470155         0.135551
 H        -0.388368         0.752528         2.820314
 H        -1.153049        -0.831334         2.467268
 H        -4.284060         0.853624         2.551422
 H        -3.945445         2.653305         2.403581
 H        -5.349971         1.455737         0.180807
 H        -4.241967         2.874365         0.219488
 H        -2.965235        -0.720259         0.726715
