19
Iteration:   299charge 0 multiplicity 1
 O         0.064038         0.033709        -0.001936
 C        -1.027960         0.494343         0.774209
 C        -1.292961         2.045480         1.025096
 C        -2.380617         1.210809         1.681445
 C        -1.312381         0.234652         2.290776
 C        -3.794032         1.655394         1.975347
 C        -4.235426         1.785389         0.570730
 O        -3.357999         1.026668        -0.375915
 C        -2.500612         0.305038         0.457423
 H        -0.161732        -0.855554        -0.361300
 H        -0.489651         2.597986         1.574844
 H        -1.467292         2.685580         0.102129
 H        -0.497180         0.588113         2.987590
 H        -1.761348        -0.759165         2.481796
 H        -4.330786         0.833831         2.496482
 H        -4.043646         2.704519         2.402666
 H        -5.264359         1.334225         0.415331
 H        -4.259276         2.789913         0.172140
 H        -2.965758        -0.697208         0.610983
