19
Iteration:  1069charge 0 multiplicity 1
 O         0.090075         0.018750        -0.071254
 C        -1.005681         0.472588         0.699955
 C        -1.272688         2.059997         1.006590
 C        -2.339563         1.174917         1.769794
 C        -1.341707         0.223732         2.244352
 C        -3.854296         1.584739         2.059864
 C        -4.343561         1.837688         0.548073
 O        -3.276441         1.150732        -0.409822
 C        -2.516688         0.280677         0.473950
 H         0.063898        -0.932336         0.200703
 H        -0.555871         2.528884         1.633747
 H        -1.621168         2.587323         0.085157
 H        -0.616772         0.534863         3.072459
 H        -1.950892        -0.650936         2.566931
 H        -4.373891         0.694274         2.478344
 H        -3.910809         2.421518         2.824907
 H        -5.315467         1.377566         0.392541
 H        -4.275309         2.852701         0.251261
 H        -2.841193        -0.770410         0.686834
