19
Iteration:  2878
 O         0.045910         0.038577        -0.131157
 C        -1.025432         0.536328         0.621263
 C        -1.275437         2.013906         1.059786
 C        -2.368514         1.131158         1.719034
 C        -1.227996         0.236627         2.224150
 C        -3.698921         1.873923         2.034926
 C        -4.413123         1.588022         0.614241
 O        -3.397099         1.043009        -0.352712
 C        -2.550199         0.228468         0.502353
 H         0.805704         0.187227         0.457599
 H        -0.552568         2.282526         1.847004
 H        -1.698651         2.710079         0.309825
 H        -0.512074         0.715057         2.989771
 H        -1.442228        -0.817170         2.480483
 H        -4.347141         1.600505         2.948142
 H        -3.517359         2.966699         2.180575
 H        -5.186743         0.846822         0.502355
 H        -4.682018         2.617950         0.229818
 H        -3.013252        -0.762342         0.611305
