19
Iteration:  4315charge 0 multiplicity 1
 O         0.152137         0.078080        -0.026716
 C        -0.898125         0.487962         0.750465
 C        -1.112493         1.958892         1.046198
 C        -2.397507         1.230061         1.734601
 C        -1.311391         0.194014         2.191650
 C        -3.767607         1.727123         1.952460
 C        -4.465246         1.528976         0.566998
 O        -3.503980         1.145929        -0.377893
 C        -2.512975         0.427441         0.443994
 H         0.421976        -0.680578         0.485133
 H        -0.505085         2.570159         1.689044
 H        -1.516026         2.521513         0.129235
 H        -0.689860         0.594575         3.023100
 H        -1.535782        -0.775413         2.551462
 H        -4.295820         1.020493         2.636563
 H        -3.859648         2.753987         2.220898
 H        -5.280019         0.841018         0.811463
 H        -4.988085         2.422355         0.186864
 H        -3.011016        -0.538458         0.630131
