19
Iteration:  2142charge 0 multiplicity 1
 O         0.061283        -0.001835         0.031095
 C        -0.946143         0.557120         0.754378
 C        -1.337063         1.977045         0.918076
 C        -2.402588         1.133195         1.683733
 C        -1.228330         0.302088         2.220820
 C        -3.741630         1.618649         2.098507
 C        -4.250802         1.861738         0.628090
 O        -3.483552         0.944290        -0.411835
 C        -2.505132         0.304152         0.449382
 H         0.025308         0.447695        -0.827252
 H        -0.668991         2.534788         1.574511
 H        -1.868521         2.574626         0.210008
 H        -0.669204         0.913683         3.043497
 H        -1.369062        -0.836473         2.467737
 H        -4.312182         0.908252         2.623248
 H        -3.768408         2.599739         2.618720
 H        -5.260769         1.531228         0.494029
 H        -4.070578         2.875363         0.203522
 H        -2.818446        -0.727508         0.783158
