19
Iteration:  4149charge 0 multiplicity 1
 O         0.167223         0.128828         0.113619
 C        -0.976821         0.565354         0.714049
 C        -1.299622         2.004414         0.906526
 C        -2.437421         1.119134         1.755135
 C        -1.295882         0.134244         2.203091
 C        -3.744425         1.677238         2.087690
 C        -4.274085         1.864560         0.572843
 O        -3.487498         0.922791        -0.382781
 C        -2.525476         0.315835         0.426815
 H         0.243649         0.079738        -0.841327
 H        -0.461159         2.626772         1.330700
 H        -1.729675         2.463309         0.013325
 H        -0.630345         0.364448         3.010505
 H        -1.586285        -0.972171         2.407528
 H        -4.417309         0.921981         2.489659
 H        -3.781657         2.666982         2.653903
 H        -5.361675         1.648941         0.550987
 H        -4.220103         2.901741         0.213516
 H        -2.762663        -0.740814         0.626013
