19
Iteration:  3664
 O         0.117559        -0.131836         0.061120
 C        -0.994421         0.552612         0.657223
 C        -1.333200         2.074380         0.914791
 C        -2.435549         1.201072         1.777378
 C        -1.230772         0.308647         2.128572
 C        -3.853414         1.594980         2.132375
 C        -4.330223         1.558673         0.630360
 O        -3.258107         1.211973        -0.399841
 C        -2.532313         0.396884         0.490673
 H        -0.016896        -0.184444        -0.889771
 H        -0.763658         2.817320         1.526017
 H        -1.731302         2.659719         0.115230
 H        -0.400473         0.714613         2.735692
 H        -1.528147        -0.664643         2.447186
 H        -4.354803         0.717522         2.598349
 H        -4.032563         2.493182         2.732675
 H        -5.225314         0.914792         0.591173
 H        -4.680766         2.614379         0.309536
 H        -2.965358        -0.651268         0.615665
