19
Iteration:   793charge 0 multiplicity 1
 O         0.010067         0.022662        -0.052077
 C        -1.034516         0.580922         0.684050
 C        -1.269591         2.013599         0.974628
 C        -2.384784         1.188561         1.881992
 C        -1.156102         0.219461         2.240929
 C        -3.927840         1.669074         1.944589
 C        -4.282854         1.787737         0.416135
 O        -3.328290         1.018347        -0.339328
 C        -2.547336         0.267567         0.573043
 H         0.740511        -0.097212         0.653460
 H        -0.396906         2.324720         1.519044
 H        -1.516243         2.583818         0.038535
 H        -0.283181         0.532241         2.768199
 H        -1.517946        -0.849301         2.396511
 H        -4.411876         0.739072         2.369616
 H        -4.090025         2.599419         2.503657
 H        -5.301203         1.462699         0.317444
 H        -4.229138         2.865906         0.298229
 H        -3.146420        -0.581847         0.944063
