19
Iteration:   801charge 0 multiplicity 1
 O         0.047096         0.066438        -0.095080
 C        -1.032543         0.510689         0.729972
 C        -1.217120         2.001730         0.954270
 C        -2.399140         1.204903         1.835941
 C        -1.240376         0.225638         2.244905
 C        -3.903767         1.641599         1.962964
 C        -4.292641         1.884082         0.463352
 O        -3.382207         0.963899        -0.356178
 C        -2.496949         0.254484         0.619980
 H         0.886733        -0.174595         0.419457
 H        -0.481716         2.437340         1.634975
 H        -1.524862         2.731470         0.138383
 H        -0.470940         0.646329         2.982731
 H        -1.449181        -0.857179         2.543070
 H        -4.546602         0.838022         2.361210
 H        -4.140836         2.524189         2.534342
 H        -5.355840         1.615987         0.338207
 H        -4.189514         2.862772        -0.057475
 H        -2.855726        -0.830181         0.719748
