19
Iteration:   669
 O         0.122142        -0.021310         0.014746
 C        -0.987886         0.523744         0.813314
 C        -1.280450         1.994377         1.097751
 C        -2.429619         1.097533         1.613040
 C        -1.352235         0.233340         2.300441
 C        -3.706331         1.841852         2.003243
 C        -4.371992         1.615176         0.549375
 O        -3.393696         1.105662        -0.447785
 C        -2.472229         0.296269         0.426608
 H        -0.066650         0.180175        -0.977431
 H        -0.567235         2.472475         1.801558
 H        -1.548248         2.592603         0.283032
 H        -0.627127         0.820073         2.968004
 H        -1.458497        -0.744977         2.728951
 H        -4.387299         1.402650         2.688844
 H        -3.422475         2.788326         2.425090
 H        -5.190888         0.980981         0.755962
 H        -4.743839         2.582885         0.244492
 H        -2.908169        -0.698556         0.497675
