19
Iteration:   293
 O        -0.008304         0.073178         0.018458
 C        -1.012965         0.556755         0.808459
 C        -1.356039         1.986595         0.981357
 C        -2.361852         1.216402         1.693997
 C        -1.338491         0.195894         2.263079
 C        -3.754666         1.670172         1.956101
 C        -4.177656         1.793044         0.564213
 O        -3.337970         0.996755        -0.358476
 C        -2.470601         0.294878         0.421020
 H        -0.159428        -0.803705        -0.262161
 H        -0.685459         2.475175         1.720592
 H        -1.715542         2.562659         0.161898
 H        -0.579657         0.725817         2.873258
 H        -1.669689        -0.819264         2.582839
 H        -4.423911         0.960331         2.464424
 H        -3.689402         2.608799         2.430747
 H        -5.159038         1.384292         0.485373
 H        -4.239250         2.864204         0.257965
 H        -2.943882        -0.680848         0.601529
