19
Iteration:  2565charge 0 multiplicity 1
 O        -0.057752         0.028074        -0.182046
 C        -1.040788         0.509057         0.681656
 C        -1.173414         1.998250         1.016672
 C        -2.348807         1.220834         1.795171
 C        -1.372200         0.233032         2.238704
 C        -3.711323         1.874303         2.008939
 C        -4.418803         1.395642         0.657772
 O        -3.258213         1.096715        -0.339944
 C        -2.531624         0.326596         0.498891
 H         0.547728         0.787240        -0.198343
 H        -0.539123         2.393054         1.741252
 H        -1.363637         2.733657         0.214133
 H        -0.579560         0.607921         3.074234
 H        -1.855138        -0.710396         2.547245
 H        -4.236423         1.506011         2.876131
 H        -3.527012         2.986428         1.943813
 H        -4.922150         0.469286         0.852523
 H        -4.934233         2.213094         0.168332
 H        -2.851001        -0.720355         0.488294
