19
Iteration:  3940charge 0 multiplicity 1
 O        -0.023189        -0.034445        -0.052192
 C        -1.015546         0.631348         0.689301
 C        -1.236459         2.134050         1.031751
 C        -2.376555         1.192846         1.826078
 C        -1.222103         0.273525         2.220319
 C        -3.853939         1.589953         1.991537
 C        -4.204369         1.764501         0.501734
 O        -3.425430         0.924418        -0.338705
 C        -2.515055         0.285373         0.526435
 H         0.166830         0.308231        -0.959201
 H        -0.517878         2.579057         1.746147
 H        -1.597121         2.912048         0.323530
 H        -0.458460         0.484880         2.986193
 H        -1.402893        -0.803952         2.447875
 H        -4.285775         0.656195         2.421531
 H        -4.099818         2.445407         2.671447
 H        -5.272925         1.583676         0.292635
 H        -4.071533         2.854396         0.165681
 H        -2.675982        -0.766948         0.849384
