19
Iteration:  2654
 O        -0.041205         0.021024        -0.106581
 C        -1.014304         0.576812         0.688147
 C        -1.292504         2.063665         0.896479
 C        -2.336382         1.218471         1.775667
 C        -1.272155         0.291996         2.280184
 C        -3.775557         1.615818         2.086855
 C        -4.244050         1.764246         0.547951
 O        -3.403348         0.946471        -0.309044
 C        -2.493637         0.194150         0.523497
 H         0.796262         0.543625        -0.135562
 H        -0.787339         2.818832         1.388935
 H        -1.751295         2.395244         0.004098
 H        -0.402931         0.676932         2.923711
 H        -1.688002        -0.720596         2.382102
 H        -4.295923         0.787254         2.610540
 H        -3.919971         2.579646         2.656344
 H        -5.272337         1.678571         0.274276
 H        -4.034284         2.871584         0.446608
 H        -2.869891        -0.863651         0.648188
