19
Iteration:  4815
 O         0.152029         0.236904        -0.050091
 C        -0.954555         0.520163         0.741420
 C        -1.249548         1.954782         1.116392
 C        -2.386912         1.163512         1.688176
 C        -1.333845         0.187240         2.249605
 C        -3.787890         1.674245         1.919536
 C        -4.357664         1.837742         0.486322
 O        -3.506932         0.906705        -0.353660
 C        -2.492902         0.287230         0.536812
 H         0.222488        -0.702941        -0.273257
 H        -0.402324         2.411162         1.776871
 H        -1.433621         2.619831         0.282101
 H        -0.542279         0.679353         2.901341
 H        -1.385822        -0.776129         2.639327
 H        -4.147162         0.745309         2.470058
 H        -3.898052         2.529707         2.585939
 H        -5.418881         1.546486         0.344525
 H        -4.246377         2.900641         0.315009
 H        -2.791336        -0.786957         0.689964
