19
Iteration:  4013
 O         0.277590        -0.012953         0.076075
 C        -0.915899         0.519626         0.630045
 C        -1.302015         2.084360         1.082989
 C        -2.395678         1.224387         1.710257
 C        -1.334082         0.146926         2.098534
 C        -3.734511         1.838489         2.054562
 C        -4.367768         1.649005         0.616399
 O        -3.503444         0.984792        -0.328095
 C        -2.614424         0.320777         0.414141
 H         0.484510         0.201590        -0.860821
 H        -0.644446         2.456935         1.846364
 H        -1.558699         2.909862         0.331694
 H        -0.524155         0.333309         2.890380
 H        -1.707869        -0.813118         2.383794
 H        -4.367225         1.206070         2.709852
 H        -3.737823         2.882821         2.329420
 H        -5.275619         0.945117         0.689795
 H        -4.632978         2.626920         0.186028
 H        -2.923205        -0.747044         0.381901
