19
Iteration:  4798
 O         0.222175         0.242678        -0.020226
 C        -0.953489         0.521842         0.724314
 C        -1.283781         1.959754         0.999130
 C        -2.444697         1.041604         1.775954
 C        -1.224443         0.224721         2.309066
 C        -3.844307         1.666344         2.007922
 C        -4.242742         1.867512         0.518159
 O        -3.573203         0.923056        -0.361919
 C        -2.525406         0.253161         0.355944
 H         0.450033        -0.658466         0.218314
 H        -0.713552         2.468508         1.719227
 H        -1.656853         2.561010         0.153338
 H        -0.563065         0.645347         3.096570
 H        -1.531646        -0.858329         2.649877
 H        -4.613499         1.230438         2.654155
 H        -3.822357         2.643727         2.539736
 H        -5.323696         1.727688         0.437564
 H        -4.115589         2.938830         0.094320
 H        -2.744338        -0.811367         0.395091
