19
Iteration:  3695charge 0 multiplicity 1
 O         0.094256        -0.031272         0.022260
 C        -0.937457         0.522384         0.712383
 C        -1.159577         2.023665         0.980066
 C        -2.375382         1.191580         1.689273
 C        -1.308894         0.242137         2.218825
 C        -3.741387         1.680831         1.931752
 C        -4.480999         1.552268         0.663351
 O        -3.421219         1.129783        -0.353896
 C        -2.530992         0.377785         0.459682
 H         0.350839         0.769650        -0.503119
 H        -0.598775         2.678974         1.714115
 H        -1.498669         2.555059         0.107687
 H        -0.483467         0.577852         2.881196
 H        -1.677440        -0.785589         2.596945
 H        -4.316463         0.997490         2.591479
 H        -3.734409         2.659397         2.455169
 H        -5.338113         0.929031         0.834110
 H        -4.629955         2.596268         0.318751
 H        -2.901560        -0.687539         0.579050
