19
Iteration:   883
 O         0.099611         0.041709        -0.088652
 C        -1.016830         0.517610         0.739953
 C        -1.292960         1.968732         0.993570
 C        -2.404420         1.149542         1.825957
 C        -1.230632         0.148532         2.356611
 C        -3.852486         1.709623         2.004300
 C        -4.273015         1.903668         0.462450
 O        -3.365398         0.972348        -0.371562
 C        -2.577531         0.261883         0.494054
 H         0.605566         0.793603        -0.483861
 H        -0.529582         2.569991         1.542973
 H        -1.685825         2.427646         0.140964
 H        -0.548637         0.598987         3.063054
 H        -1.635584        -0.797438         2.602975
 H        -4.423327         0.851377         2.434908
 H        -4.026446         2.658630         2.621323
 H        -5.282644         1.574615         0.200264
 H        -4.005363         2.844726         0.033622
 H        -2.918479        -0.712479         0.819956
