19
Iteration:   592charge 0 multiplicity 1
 O         0.044194         0.051167        -0.125750
 C        -0.994816         0.544655         0.677991
 C        -1.375835         2.030864         1.045308
 C        -2.409027         1.057165         1.703138
 C        -1.348735         0.310634         2.372084
 C        -3.793705         1.590745         2.015794
 C        -4.120009         1.968225         0.490114
 O        -3.381052         0.929070        -0.346511
 C        -2.532267         0.223375         0.462275
 H         0.561224        -0.562262         0.414537
 H        -0.791846         2.536412         1.829785
 H        -1.577232         2.607711         0.202067
 H        -0.642911         1.033134         2.915269
 H        -1.715770        -0.608896         2.830395
 H        -4.582481         1.142679         2.563522
 H        -3.612826         2.502574         2.568016
 H        -5.140661         1.711818         0.262063
 H        -3.951252         3.053301         0.326681
 H        -2.744045        -0.857294         0.568124
