19
Iteration:  1265charge 0 multiplicity 1
 O         0.156185        -0.060640         0.082597
 C        -0.911001         0.514186         0.716655
 C        -1.223705         1.981763         1.063803
 C        -2.370228         1.194587         1.647563
 C        -1.410998         0.087225         2.180572
 C        -3.720013         1.681930         2.047173
 C        -4.436404         1.787513         0.616389
 O        -3.416182         1.152147        -0.397184
 C        -2.524931         0.354567         0.382537
 H         0.345332         0.417110        -0.717565
 H        -0.724314         2.613705         1.745374
 H        -1.663455         2.682298         0.282879
 H        -0.706009         0.400596         2.988791
 H        -1.876549        -0.878126         2.493297
 H        -4.104318         1.025349         2.782583
 H        -3.569075         2.662142         2.440912
 H        -5.348614         1.158732         0.362597
 H        -4.587613         2.885115         0.360399
 H        -2.910513        -0.697663         0.573122
