19
Iteration:  1203
 O        -0.001616         0.035788        -0.123812
 C        -0.972951         0.584641         0.747412
 C        -1.298423         1.993085         1.045717
 C        -2.373633         1.075801         1.782891
 C        -1.386689         0.167665         2.295164
 C        -3.820471         1.607080         2.069128
 C        -4.129068         1.893940         0.487671
 O        -3.333013         1.099715        -0.384814
 C        -2.492111         0.357859         0.471175
 H        -0.153944        -0.895129        -0.176078
 H        -0.690019         2.601749         1.738644
 H        -1.763201         2.448579         0.213033
 H        -0.716852         0.614441         2.981110
 H        -1.664155        -0.877111         2.522833
 H        -4.421091         0.707137         2.435142
 H        -4.031028         2.490583         2.769379
 H        -5.056037         1.371730         0.471056
 H        -4.188207         2.882672         0.123747
 H        -2.752737        -0.706774         0.400480
