19
Iteration:  1259
 O         0.191675        -0.069396         0.090212
 C        -0.912882         0.524259         0.732249
 C        -1.231532         2.005794         1.040188
 C        -2.366829         1.187954         1.667527
 C        -1.367667         0.086113         2.192160
 C        -3.751325         1.648658         2.001279
 C        -4.401221         1.772414         0.622729
 O        -3.462334         1.194048        -0.405662
 C        -2.549477         0.350456         0.414719
 H         0.248684         0.270298        -0.827944
 H        -0.519617         2.522484         1.769364
 H        -1.524066         2.595631         0.204994
 H        -0.737445         0.378974         3.014247
 H        -1.905334        -0.866166         2.387347
 H        -4.138246         1.029767         2.863748
 H        -3.776031         2.693420         2.442709
 H        -5.363738         1.294935         0.414647
 H        -4.536777         2.785357         0.334065
 H        -2.918092        -0.650298         0.530357
