19
Iteration:  3027charge 0 multiplicity 1
 O         0.143686         0.093247        -0.196664
 C        -0.956714         0.545333         0.676597
 C        -1.300219         2.009465         1.061084
 C        -2.418837         1.171230         1.760936
 C        -1.301825         0.221450         2.246687
 C        -3.845593         1.719432         2.064849
 C        -4.321066         1.898638         0.571624
 O        -3.497438         0.877066        -0.303083
 C        -2.464946         0.214278         0.512639
 H         1.011908        -0.120367         0.212717
 H        -0.524442         2.533870         1.641163
 H        -1.508027         2.609227         0.145293
 H        -0.453742         0.484621         2.816872
 H        -1.647137        -0.854845         2.435275
 H        -4.420825         1.040599         2.667386
 H        -3.663021         2.695471         2.472903
 H        -5.388156         1.593073         0.237495
 H        -4.017689         2.877444         0.141465
 H        -2.903733        -0.787805         0.624334
