19
Iteration:   312charge 0 multiplicity 1
 O         0.159102        -0.036658        -0.023470
 C        -0.931281         0.512803         0.675275
 C        -1.149331         2.022012         0.999347
 C        -2.386222         1.260826         1.819551
 C        -1.327337         0.261423         2.254245
 C        -3.861607         1.641012         2.020659
 C        -4.402448         1.755439         0.423364
 O        -3.391292         1.077138        -0.390586
 C        -2.560900         0.336099         0.558700
 H        -0.082940        -0.857213        -0.470971
 H        -0.461619         2.446132         1.837639
 H        -1.527975         2.635640         0.135426
 H        -0.583018         0.662673         3.090940
 H        -1.647451        -0.798235         2.607354
 H        -4.377426         0.775644         2.554803
 H        -3.958955         2.506667         2.739323
 H        -5.436477         1.386999         0.292240
 H        -4.375595         2.808240         0.219675
 H        -2.874737        -0.725684         0.735572
