19
Iteration:  3117
 O        -0.087251         0.035570        -0.132494
 C        -1.023392         0.585818         0.717376
 C        -1.212829         2.053868         1.039797
 C        -2.392654         1.203423         1.753292
 C        -1.264281         0.175799         2.248245
 C        -3.794377         1.762212         2.020267
 C        -4.264027         1.662081         0.553308
 O        -3.367157         0.992952        -0.342235
 C        -2.502121         0.259397         0.512391
 H         0.699303         0.591972        -0.117671
 H        -0.348598         2.403896         1.576133
 H        -1.414607         2.683891         0.195622
 H        -0.663107         0.520401         3.038799
 H        -1.388234        -0.905419         2.448358
 H        -4.305036         1.041227         2.616058
 H        -3.847409         2.772406         2.356298
 H        -5.267951         1.032226         0.609567
 H        -4.426741         2.702390         0.083225
 H        -2.807894        -0.775422         0.784122
