19
Iteration:  4496charge 0 multiplicity 1
 O         0.067818         0.073215        -0.039974
 C        -1.003689         0.550418         0.691035
 C        -1.379256         2.078878         0.927914
 C        -2.407636         1.124186         1.731283
 C        -1.277541         0.222208         2.253386
 C        -3.809970         1.613202         1.997027
 C        -4.283968         1.796052         0.566937
 O        -3.335157         0.917442        -0.327024
 C        -2.486255         0.250922         0.548484
 H         0.785596         0.754502        -0.055699
 H        -0.659318         2.790678         1.337134
 H        -1.794845         2.799350         0.137628
 H        -0.700544         0.688484         3.014064
 H        -1.317737        -0.937500         2.390271
 H        -4.580742         1.003832         2.493989
 H        -3.843966         2.598448         2.586568
 H        -5.320460         1.627736         0.322723
 H        -4.134383         2.850376         0.254655
 H        -2.854015        -0.712104         0.931646
