19
Iteration:  3496
 O         0.152181        -0.079214         0.017338
 C        -0.974039         0.576251         0.594352
 C        -1.250091         2.022652         0.976930
 C        -2.365126         1.222165         1.763231
 C        -1.218739         0.227048         2.304224
 C        -3.792103         1.722984         2.006655
 C        -4.504282         1.553210         0.632048
 O        -3.400675         1.151356        -0.356537
 C        -2.510431         0.336602         0.453914
 H         0.275837         0.204750        -0.896106
 H        -0.575556         2.591106         1.602191
 H        -1.771647         2.664210         0.229669
 H        -0.384980         0.642934         2.728793
 H        -1.407739        -0.827183         2.491197
 H        -4.255473         1.161564         2.842274
 H        -3.765957         2.796464         2.297669
 H        -5.383189         0.863601         0.621158
 H        -4.942782         2.458837         0.173333
 H        -2.907288        -0.684375         0.699375
