19
Iteration:  2741charge 0 multiplicity 1
 O         0.105576         0.042923        -0.198491
 C        -0.945889         0.499380         0.702616
 C        -1.340414         1.984698         0.929839
 C        -2.414770         1.201081         1.804175
 C        -1.245483         0.290526         2.327033
 C        -3.776173         1.732096         2.086568
 C        -4.239858         1.789705         0.564772
 O        -3.520615         0.915339        -0.341074
 C        -2.518031         0.256931         0.498637
 H         0.874861         0.606320         0.023679
 H        -0.589567         2.510820         1.460134
 H        -1.698434         2.502721         0.087016
 H        -0.513103         0.729019         3.062031
 H        -1.378909        -0.773143         2.565462
 H        -4.412990         1.015242         2.498056
 H        -3.920013         2.626937         2.687676
 H        -5.275264         1.366985         0.545463
 H        -4.357467         2.755551         0.119282
 H        -2.803341        -0.775092         0.749091
