19
Iteration:  3601charge 0 multiplicity 1
 O         0.062321         0.258055        -0.109297
 C        -1.039603         0.559137         0.669609
 C        -1.269193         1.988943         1.016531
 C        -2.361375         1.134523         1.801421
 C        -1.323380         0.166378         2.244638
 C        -3.722770         1.788798         1.981779
 C        -4.235623         1.752005         0.482012
 O        -3.427077         0.858292        -0.286408
 C        -2.529756         0.197846         0.623824
 H        -0.252967         0.151045        -1.007503
 H        -0.566513         2.510355         1.673171
 H        -1.637692         2.621091         0.211839
 H        -0.553823         0.427397         3.056024
 H        -1.757238        -0.781048         2.519395
 H        -4.225932         1.019850         2.582691
 H        -3.899385         2.717068         2.483414
 H        -5.282429         1.500241         0.281508
 H        -3.888432         2.702650         0.091687
 H        -2.795084        -0.825189         0.740171
