19
Iteration:   608
 O         0.031640        -0.018429        -0.083631
 C        -0.962794         0.531153         0.688271
 C        -1.280732         2.019895         1.021347
 C        -2.456973         1.137471         1.783827
 C        -1.276456         0.360429         2.382929
 C        -3.834774         1.604133         1.977901
 C        -4.219584         1.787287         0.513364
 O        -3.415257         1.059614        -0.411533
 C        -2.472527         0.285082         0.452093
 H         0.207231        -0.877359         0.410140
 H        -0.511943         2.470957         1.662846
 H        -1.709920         2.760759         0.257974
 H        -0.650748         0.923500         3.043801
 H        -1.393697        -0.726090         2.618480
 H        -4.274791         0.630140         2.409488
 H        -4.036655         2.548460         2.570680
 H        -5.351155         1.861683         0.334887
 H        -3.807580         2.795275         0.358217
 H        -2.767034        -0.793062         0.545609
