19
Iteration:   772charge 0 multiplicity 1
 O        -0.034782        -0.123193        -0.031924
 C        -1.008827         0.510925         0.730077
 C        -1.384753         2.114271         1.004747
 C        -2.405136         1.215254         1.788179
 C        -1.224583         0.244078         2.208170
 C        -3.803005         1.646528         2.027968
 C        -4.337994         1.698354         0.468063
 O        -3.231282         1.141317        -0.391900
 C        -2.447152         0.316153         0.526593
 H         0.795965        -0.180823         0.429687
 H        -0.783729         2.614097         1.768498
 H        -1.855265         2.696283         0.180691
 H        -0.566544         0.798215         2.800748
 H        -1.455713        -0.809871         2.490432
 H        -4.341652         0.818781         2.586031
 H        -3.843617         2.683271         2.415619
 H        -5.276013         1.079232         0.539314
 H        -4.643486         2.700043         0.100662
 H        -2.909892        -0.678577         0.553721
