19
Iteration:  4898charge 0 multiplicity 1
 O         0.076939         0.002017         0.030377
 C        -0.958756         0.512974         0.725529
 C        -1.317871         2.048936         1.025807
 C        -2.393188         1.199132         1.724633
 C        -1.246061         0.202224         2.195649
 C        -3.824385         1.659689         2.032910
 C        -4.410895         1.621262         0.501790
 O        -3.299443         1.114405        -0.327700
 C        -2.509936         0.343196         0.496314
 H         0.383502         0.641022        -0.640479
 H        -0.683955         2.628694         1.638229
 H        -1.558491         2.470335         0.047821
 H        -0.477471         0.555728         2.784010
 H        -1.718109        -0.809116         2.259468
 H        -4.327999         0.993227         2.716930
 H        -3.836824         2.683271         2.478726
 H        -5.263278         0.930612         0.370971
 H        -4.635317         2.654813         0.179474
 H        -2.861945        -0.703734         0.631943
