19
Iteration:   763
 O        -0.030781        -0.176382        -0.081028
 C        -0.894706         0.577052         0.732302
 C        -1.394677         2.102376         1.032751
 C        -2.420298         1.138111         1.747822
 C        -1.317192         0.313548         2.312633
 C        -3.793818         1.699442         2.020764
 C        -4.357531         1.670683         0.522166
 O        -3.266496         1.151426        -0.410340
 C        -2.423230         0.306283         0.423806
 H         0.824911        -0.125793         0.331403
 H        -0.667683         2.622686         1.726491
 H        -1.570903         2.742911         0.185504
 H        -0.593251         0.686963         3.017769
 H        -1.574292        -0.692867         2.585648
 H        -4.408923         1.004640         2.645803
 H        -3.814934         2.615262         2.671552
 H        -5.174153         0.863703         0.543324
 H        -4.729852         2.665811         0.190749
 H        -2.794561        -0.716844         0.581159
