19
Iteration:  2589charge 0 multiplicity 1
 O         0.030354        -0.078517        -0.076380
 C        -0.960215         0.585241         0.693658
 C        -1.263728         2.023328         1.034095
 C        -2.351370         1.220655         1.771977
 C        -1.271504         0.211685         2.197737
 C        -3.696172         1.817895         2.034929
 C        -4.400639         1.523033         0.600778
 O        -3.438015         1.079006        -0.389802
 C        -2.537698         0.362936         0.489513
 H         0.742273         0.548103        -0.197646
 H        -0.601781         2.692564         1.619615
 H        -1.725420         2.508410         0.185675
 H        -0.412514         0.541030         2.885816
 H        -1.523525        -0.841455         2.407973
 H        -4.218066         1.165531         2.766411
 H        -3.645451         2.929320         2.299086
 H        -4.946044         0.662384         0.886732
 H        -4.917874         2.415143         0.141223
 H        -2.934530        -0.611015         0.721975
