19
Iteration:  2590
 O         0.033746        -0.081439        -0.072974
 C        -0.951014         0.579674         0.692999
 C        -1.261278         2.019906         1.025749
 C        -2.353607         1.214406         1.784053
 C        -1.263682         0.217307         2.186042
 C        -3.703657         1.811142         2.020513
 C        -4.406594         1.533888         0.616877
 O        -3.438071         1.076361        -0.388735
 C        -2.544758         0.376384         0.494353
 H         0.754393         0.539529        -0.195178
 H        -0.615153         2.732084         1.646904
 H        -1.712805         2.501476         0.165588
 H        -0.457516         0.531829         2.869799
 H        -1.503966        -0.832790         2.422591
 H        -4.243751         1.165219         2.770583
 H        -3.650759         2.913486         2.297987
 H        -4.980771         0.640363         0.845082
 H        -4.890716         2.438137         0.138535
 H        -2.895908        -0.625524         0.709009
