19
Iteration:  1822
 O         0.084470         0.120444        -0.043400
 C        -1.015438         0.513168         0.725777
 C        -1.321954         1.964166         1.091053
 C        -2.438751         1.068628         1.836310
 C        -1.170104         0.019409         2.095360
 C        -3.803301         1.737290         1.959980
 C        -4.285573         1.896515         0.478531
 O        -3.431835         1.130092        -0.333710
 C        -2.519646         0.268506         0.532424
 H         0.537185        -0.552005         0.443974
 H        -0.544507         2.408476         1.685192
 H        -1.649043         2.662493         0.273128
 H        -0.356674         0.203088         2.895131
 H        -1.473984        -1.089495         2.188532
 H        -4.503274         1.088079         2.524279
 H        -3.934106         2.700599         2.385864
 H        -5.377709         1.671723         0.418182
 H        -4.161857         3.013732         0.307705
 H        -2.800912        -0.763942         0.411379
