19
Iteration:  1405charge 0 multiplicity 1
 O         0.158384        -0.058803         0.067170
 C        -1.029612         0.478257         0.745271
 C        -1.311118         1.947839         1.017104
 C        -2.422754         1.126185         1.707076
 C        -1.347410         0.120967         2.212204
 C        -3.705308         1.665190         2.031539
 C        -4.312726         1.806661         0.605774
 O        -3.387770         1.236376        -0.393888
 C        -2.556325         0.355637         0.342918
 H         0.645273         0.754321        -0.149401
 H        -0.648267         2.594052         1.608004
 H        -1.512358         2.515501         0.029804
 H        -0.615697         0.383965         2.971810
 H        -1.622469        -0.891256         2.356380
 H        -4.275951         0.701415         2.472630
 H        -3.649089         2.527583         2.732178
 H        -5.208202         1.222610         0.769865
 H        -4.609816         2.835306         0.278773
 H        -3.086174        -0.536468         0.349183
