19
Iteration:   848charge 0 multiplicity 1
 O         0.097963         0.100597        -0.021676
 C        -1.028746         0.601625         0.658594
 C        -1.326978         1.985914         1.080939
 C        -2.421251         1.065887         1.762160
 C        -1.243908         0.174732         2.226473
 C        -3.796838         1.800291         1.983449
 C        -4.116728         1.962666         0.438043
 O        -3.557570         0.775511        -0.285673
 C        -2.544222         0.231913         0.471144
 H         0.853817         0.479831         0.471583
 H        -0.570275         2.552097         1.637142
 H        -1.700798         2.588135         0.238967
 H        -0.534354         0.550713         2.945708
 H        -1.480855        -0.912831         2.505487
 H        -4.510308         1.062029         2.463374
 H        -3.742477         2.681584         2.661159
 H        -5.154622         1.976664         0.150696
 H        -3.750756         2.937088         0.055263
 H        -2.799352        -0.863482         0.471943
