19
Iteration:  3910charge 0 multiplicity 1
 O         0.112238         0.127010        -0.131465
 C        -0.977908         0.554224         0.725723
 C        -1.274914         2.080365         1.094248
 C        -2.415013         1.116459         1.821048
 C        -1.182559         0.167633         2.292870
 C        -3.835852         1.737462         1.958339
 C        -4.259820         1.846225         0.457187
 O        -3.513312         0.816976        -0.272891
 C        -2.500668         0.253929         0.497030
 H        -0.053759         0.117504        -1.077578
 H        -0.610941         2.574773         1.871019
 H        -1.738836         2.706480         0.367408
 H        -0.414624         0.549974         2.897671
 H        -1.498132        -0.906687         2.514125
 H        -4.437396         1.083642         2.579201
 H        -3.756840         2.710844         2.497730
 H        -5.340901         1.852347         0.033726
 H        -3.964616         2.915068         0.080208
 H        -2.883632        -0.834366         0.688865
