19
Iteration:  4152charge 0 multiplicity 1
 O         0.161328         0.138363         0.122783
 C        -0.972119         0.543157         0.702218
 C        -1.313682         1.998948         0.927569
 C        -2.408031         1.082790         1.739673
 C        -1.309765         0.153980         2.182839
 C        -3.764219         1.679385         2.072828
 C        -4.252503         1.869641         0.562103
 O        -3.498038         0.948113        -0.377458
 C        -2.534286         0.296135         0.462399
 H         0.289835         0.113783        -0.862453
 H        -0.608626         2.665192         1.400142
 H        -1.789950         2.355141        -0.053595
 H        -0.601367         0.449983         2.982253
 H        -1.435216        -0.860977         2.385233
 H        -4.428540         0.932302         2.521082
 H        -3.645828         2.627080         2.545355
 H        -5.308999         1.601158         0.585687
 H        -4.097466         2.933292         0.259348
 H        -2.809764        -0.733162         0.658659
