19
Iteration:  1956
 O         0.018587         0.176539        -0.180192
 C        -1.062276         0.399492         0.682466
 C        -1.215151         1.953957         1.128432
 C        -2.365502         1.240978         1.796126
 C        -1.368848         0.157832         2.161728
 C        -3.711118         1.779435         1.972467
 C        -4.339485         1.647735         0.531616
 O        -3.288168         1.081373        -0.318584
 C        -2.596380         0.291033         0.559357
 H         0.652730        -0.477118         0.158197
 H        -0.408823         2.280987         1.792157
 H        -1.347657         2.678003         0.395238
 H        -0.479280         0.446690         2.781946
 H        -1.720107        -0.779681         2.571212
 H        -4.369792         1.233973         2.625248
 H        -3.717123         2.823752         2.344061
 H        -5.173582         0.972889         0.344228
 H        -4.605850         2.663792         0.247740
 H        -3.090887        -0.650751         0.860943
