19
Iteration:   556charge 0 multiplicity 1
 O         0.094294         0.175357        -0.067211
 C        -1.020872         0.448561         0.738106
 C        -1.269935         1.994516         1.005379
 C        -2.427819         1.124650         1.875994
 C        -1.174491         0.025952         2.174442
 C        -3.876308         1.774561         1.935050
 C        -4.209900         1.939672         0.388501
 O        -3.458798         0.857107        -0.294701
 C        -2.611859         0.313760         0.590481
 H         0.785842         0.439980         0.590955
 H        -0.581290         2.593121         1.585952
 H        -1.561503         2.698748         0.135821
 H        -0.334035         0.180596         2.832966
 H        -1.551198        -0.971733         2.588644
 H        -4.606661         1.161202         2.428493
 H        -3.749366         2.781074         2.344971
 H        -5.239165         1.914952         0.121167
 H        -3.726288         2.889346        -0.066110
 H        -2.995207        -0.717959         0.866102
