19
Iteration:  2613
 O         0.108356        -0.106346        -0.038872
 C        -0.949974         0.561510         0.648648
 C        -1.244176         2.049940         0.916028
 C        -2.382769         1.204181         1.681901
 C        -1.170964         0.266452         2.216333
 C        -3.865526         1.700355         2.076111
 C        -4.518664         1.672979         0.572362
 O        -3.457533         1.119117        -0.238888
 C        -2.471810         0.244395         0.467365
 H         0.836799         0.548311        -0.055300
 H        -0.354039         2.463746         1.568376
 H        -1.554602         2.720425         0.111308
 H        -0.410345         0.581569         2.871021
 H        -1.372101        -0.801102         2.509037
 H        -4.321941         1.069387         2.927638
 H        -3.760879         2.786192         2.335770
 H        -5.428454         1.021897         0.523847
 H        -4.468625         2.727791         0.182379
 H        -2.816645        -0.767449         0.658698
