19
Iteration:  1540
 O         0.204681         0.078981         0.073302
 C        -1.035925         0.539040         0.680121
 C        -1.327747         2.010290         1.058588
 C        -2.404434         1.072066         1.713325
 C        -1.284060         0.075069         2.114301
 C        -3.770801         1.591455         2.064585
 C        -4.250714         2.038202         0.589981
 O        -3.435041         1.041040        -0.390461
 C        -2.593853         0.305132         0.400774
 H         0.066621        -0.815750        -0.208860
 H        -0.666564         2.373010         1.898759
 H        -1.605924         2.845348         0.429898
 H        -0.570882         0.359300         2.926709
 H        -1.688394        -0.955666         2.227985
 H        -4.421471         0.899118         2.727278
 H        -3.717601         2.535019         2.655560
 H        -5.282808         1.864271         0.365108
 H        -3.986072         3.081904         0.364151
 H        -2.905309        -0.721225         0.360056
