19
Iteration:  2812charge 0 multiplicity 1
 O         0.013798        -0.005900        -0.040155
 C        -0.946364         0.542667         0.716324
 C        -1.139683         2.059154         1.012857
 C        -2.344195         1.232461         1.698321
 C        -1.218199         0.309861         2.246133
 C        -3.784644         1.730143         1.973767
 C        -4.393225         1.475194         0.600719
 O        -3.443570         1.144535        -0.321098
 C        -2.486702         0.306571         0.445364
 H        -0.428026        -0.560584        -0.720877
 H        -0.414468         2.513540         1.793328
 H        -1.575208         2.725465         0.180193
 H        -0.516569         0.532968         3.086186
 H        -1.559130        -0.780040         2.398066
 H        -4.277272         1.115818         2.854881
 H        -3.930919         2.776623         2.362479
 H        -5.276192         0.897859         0.742832
 H        -4.961468         2.365463         0.184729
 H        -2.898330        -0.712736         0.709041
