19
Iteration:  3561
 O         0.149506         0.013549        -0.058865
 C        -0.941989         0.589529         0.657368
 C        -1.457333         2.049869         1.013482
 C        -2.460405         1.082509         1.780477
 C        -1.158631         0.322470         2.218728
 C        -3.865152         1.686296         2.054380
 C        -4.157005         1.893378         0.498027
 O        -3.472920         0.879354        -0.239743
 C        -2.548787         0.187494         0.520920
 H         0.144477         0.257018        -1.017959
 H        -0.925309         2.539155         1.802950
 H        -1.822738         2.611620         0.124715
 H        -0.306741         0.799309         2.715846
 H        -1.120185        -0.820835         2.227279
 H        -4.531777         0.924796         2.492760
 H        -3.905978         2.654944         2.594038
 H        -5.210640         1.940157         0.093396
 H        -3.797469         2.953614         0.354471
 H        -2.757169        -0.937705         0.614420
