19
Iteration:  1769charge 0 multiplicity 1
 O        -0.121636         0.090927        -0.157642
 C        -1.099391         0.506744         0.751954
 C        -1.230778         2.022876         1.108022
 C        -2.368661         1.123740         1.736146
 C        -1.335908         0.104371         2.398185
 C        -3.770399         1.561332         2.011552
 C        -4.121367         2.017396         0.530413
 O        -3.308768         0.973801        -0.398740
 C        -2.498689         0.269664         0.411088
 H         0.471971         0.817766        -0.242560
 H        -0.590069         2.491946         1.793205
 H        -1.570975         2.658852         0.229763
 H        -0.604851         0.433729         3.176977
 H        -1.812491        -0.805961         2.570642
 H        -4.374527         0.602318         2.128266
 H        -4.168565         2.185787         2.828804
 H        -5.225681         1.922820         0.313245
 H        -3.795368         3.066691         0.295639
 H        -2.820222        -0.731484         0.569036
