19
Iteration:  2251
 O        -0.077899         0.030606        -0.218331
 C        -1.027545         0.554687         0.759125
 C        -1.318852         2.043860         1.149064
 C        -2.366614         1.157483         1.834517
 C        -1.086530         0.110887         2.214973
 C        -3.804998         1.897591         1.860110
 C        -4.353684         1.574841         0.551792
 O        -3.327469         1.044319        -0.342075
 C        -2.519319         0.253593         0.618587
 H         0.793450         0.375092         0.115651
 H        -0.503495         2.592923         1.652754
 H        -1.734788         2.616964         0.301714
 H        -0.474167         0.599841         3.014447
 H        -1.370161        -0.960779         2.264273
 H        -4.429415         1.663684         2.666543
 H        -3.607451         2.986924         1.876353
 H        -5.219178         0.993019         0.562989
 H        -4.778649         2.476219         0.047838
 H        -2.940530        -0.706231         0.738061
