19
Iteration:   909
 O         0.003046        -0.092531        -0.033305
 C        -1.007237         0.552256         0.768782
 C        -1.280825         2.066686         1.088484
 C        -2.427563         1.152945         1.654222
 C        -1.269096         0.287204         2.301434
 C        -3.798699         1.638746         1.974709
 C        -4.262192         1.712390         0.565726
 O        -3.298344         1.134141        -0.402705
 C        -2.511412         0.252396         0.476825
 H        -0.006544         0.357255        -0.946802
 H        -0.632220         2.530724         1.795616
 H        -1.645769         2.737845         0.212551
 H        -0.765980         0.757199         3.157153
 H        -1.807855        -0.642382         2.537608
 H        -4.158090         0.832775         2.581668
 H        -3.750543         2.575152         2.474988
 H        -5.225205         1.207830         0.304733
 H        -4.286689         2.790739         0.280262
 H        -2.785570        -0.810966         0.750847
