19
Iteration:  1931
 O        -0.082114         0.039034        -0.273634
 C        -0.915751         0.544995         0.732309
 C        -1.203541         1.912110         1.040964
 C        -2.421328         1.124106         1.825994
 C        -1.383945         0.176060         2.439076
 C        -3.730452         1.767913         2.027667
 C        -4.380670         1.659322         0.518889
 O        -3.295179         1.214781        -0.396408
 C        -2.487188         0.305084         0.502110
 H         0.851202        -0.026682         0.076138
 H        -0.636467         2.558792         1.683685
 H        -1.342228         2.542975         0.105887
 H        -0.591409         0.331277         3.315223
 H        -1.510903        -0.967833         2.447804
 H        -4.423744         1.178169         2.655351
 H        -3.731816         2.747889         2.411531
 H        -5.057408         0.852578         0.387198
 H        -4.871568         2.623247         0.222206
 H        -2.855507        -0.810780         0.498082
