19
Iteration:  1357charge 0 multiplicity 1
 O        -0.084114        -0.050052        -0.124878
 C        -0.940007         0.568799         0.740403
 C        -1.213068         2.021176         1.143779
 C        -2.326343         1.208184         1.757918
 C        -1.350747         0.130237         2.220171
 C        -3.772756         1.687562         2.054231
 C        -4.354738         1.675854         0.456650
 O        -3.328195         1.190421        -0.389907
 C        -2.460699         0.383487         0.481587
 H         0.693453        -0.480366         0.319502
 H        -0.486262         2.488788         1.845235
 H        -1.472891         2.767628         0.442131
 H        -0.626250         0.376288         3.035355
 H        -1.748490        -0.884535         2.477460
 H        -4.349013         0.826081         2.494980
 H        -4.016771         2.654539         2.562308
 H        -5.235571         0.899130         0.394260
 H        -4.811173         2.637926         0.172817
 H        -2.806464        -0.668011         0.362354
