19
Iteration:  4684
 O         0.061128         0.098249        -0.069722
 C        -1.016242         0.516141         0.753276
 C        -1.341010         2.023851         1.073085
 C        -2.447009         1.215139         1.824937
 C        -1.172480         0.155035         2.235581
 C        -3.862861         1.775651         1.976350
 C        -4.362324         1.624158         0.493299
 O        -3.226946         1.067028        -0.375335
 C        -2.472645         0.266969         0.537442
 H        -0.337766        -0.158591        -0.901880
 H        -0.686549         2.592667         1.784696
 H        -1.693133         2.615366         0.198898
 H        -0.325010         0.649089         2.801518
 H        -1.506600        -0.832587         2.447046
 H        -4.455869         1.125836         2.663958
 H        -3.916097         2.719424         2.527309
 H        -5.230736         0.945099         0.454292
 H        -4.706104         2.509774        -0.041635
 H        -2.861176        -0.771965         0.597936
