19
Iteration:  4027
 O         0.187854        -0.005166         0.038004
 C        -0.896628         0.641331         0.719139
 C        -1.156630         2.058623         1.118084
 C        -2.362601         1.149927         1.687912
 C        -1.300719         0.106242         2.182530
 C        -3.707817         1.809684         1.966659
 C        -4.484057         1.658094         0.555897
 O        -3.568710         1.007061        -0.394045
 C        -2.544180         0.308575         0.486049
 H         0.181663         0.496895        -0.818996
 H        -0.437182         2.531728         1.839398
 H        -1.414376         2.686757         0.263985
 H        -0.680509         0.454423         3.023379
 H        -1.712389        -0.968841         2.109208
 H        -4.216771         1.293773         2.804996
 H        -3.540473         2.821807         2.442765
 H        -5.394268         1.073675         0.776808
 H        -4.960475         2.468482         0.037232
 H        -2.775509        -0.724483         0.757855
