19
Iteration:  1503charge 0 multiplicity 1
 O         0.043127         0.168440        -0.195778
 C        -0.944627         0.474653         0.712112
 C        -1.369532         1.950876         1.047501
 C        -2.442199         1.083365         1.804237
 C        -1.325902         0.114954         2.387786
 C        -3.829506         1.525090         1.986952
 C        -4.139454         2.078921         0.507732
 O        -3.304222         1.098039        -0.356469
 C        -2.623844         0.250398         0.504732
 H         0.244576        -0.758653        -0.103806
 H        -0.596326         2.355970         1.731724
 H        -1.536431         2.644846         0.186963
 H        -0.669301         0.435153         3.143805
 H        -1.596029        -0.914225         2.481864
 H        -4.315232         0.522327         2.389314
 H        -3.814549         2.376337         2.676768
 H        -5.148726         1.952244         0.031110
 H        -3.771484         3.189197         0.440256
 H        -2.997304        -0.839550         0.575390
