19
Iteration:  3209charge 0 multiplicity 1
 O        -0.001563        -0.183825        -0.051592
 C        -0.932057         0.621488         0.713727
 C        -1.226164         2.093050         0.957478
 C        -2.376785         1.258264         1.707273
 C        -1.227778         0.251901         2.170013
 C        -3.842120         1.595244         2.091312
 C        -4.474096         1.579428         0.541914
 O        -3.380880         1.165877        -0.336561
 C        -2.435243         0.423725         0.498367
 H         0.881698        -0.010936         0.346145
 H        -0.443343         2.674080         1.476898
 H        -1.441329         2.550134        -0.020589
 H        -0.614419         0.724505         2.969277
 H        -1.453035        -0.732788         2.479512
 H        -4.207169         0.736821         2.713021
 H        -3.945388         2.627920         2.567793
 H        -5.287387         0.797470         0.732642
 H        -4.860692         2.572302         0.314591
 H        -2.819899        -0.570223         0.598253
