19
Iteration:   313
 O         0.165713        -0.041502        -0.024021
 C        -0.923965         0.525884         0.674415
 C        -1.141755         2.007164         0.994505
 C        -2.380924         1.266731         1.827588
 C        -1.329752         0.258809         2.250026
 C        -3.869891         1.639830         2.024631
 C        -4.415590         1.753504         0.412490
 O        -3.394702         1.078401        -0.387411
 C        -2.559469         0.344351         0.566521
 H        -0.077490        -0.882756        -0.493457
 H        -0.471606         2.428274         1.838227
 H        -1.527043         2.637768         0.168806
 H        -0.592276         0.693682         3.068947
 H        -1.637210        -0.804752         2.614814
 H        -4.394389         0.773714         2.539890
 H        -3.925194         2.475315         2.732774
 H        -5.426917         1.387317         0.282245
 H        -4.402172         2.819603         0.223579
 H        -2.896249        -0.709805         0.736020
