19
Iteration:  3670charge 0 multiplicity 1
 O         0.121571        -0.137163         0.062483
 C        -0.917568         0.579113         0.604447
 C        -1.366382         2.061617         0.904954
 C        -2.397231         1.263296         1.746092
 C        -1.275017         0.273129         2.177943
 C        -3.836217         1.575802         2.182481
 C        -4.357949         1.580759         0.589569
 O        -3.280817         1.224304        -0.389307
 C        -2.542700         0.366711         0.504351
 H         0.046149        -0.000394        -0.900646
 H        -0.634158         2.686896         1.442441
 H        -1.768303         2.583907        -0.000308
 H        -0.595345         0.694927         2.927859
 H        -1.557275        -0.799872         2.606702
 H        -4.363486         0.785121         2.719964
 H        -4.075730         2.533669         2.701119
 H        -5.118322         0.785108         0.615909
 H        -4.638761         2.554934         0.329266
 H        -2.897757        -0.661335         0.407215
