19
Iteration:  4719charge 0 multiplicity 1
 O         0.103228         0.113604        -0.107070
 C        -0.984753         0.553899         0.723260
 C        -1.302748         2.077529         1.106182
 C        -2.384068         1.241760         1.735431
 C        -1.355861         0.245081         2.301021
 C        -3.814603         1.621102         1.976314
 C        -4.332158         1.792626         0.502863
 O        -3.395939         0.928779        -0.353198
 C        -2.410760         0.255206         0.498503
 H        -0.207872        -0.713946        -0.483281
 H        -0.583002         2.512003         1.823467
 H        -1.527795         2.768355         0.326651
 H        -0.411749         0.532039         2.943465
 H        -1.662170        -0.742204         2.705428
 H        -4.301430         0.636322         2.279053
 H        -3.958635         2.444797         2.646283
 H        -5.345521         1.408118         0.570337
 H        -4.238926         2.832979         0.090463
 H        -2.535649        -0.839076         0.472216
