19
Iteration:  1041
 O        -0.045539         0.052631        -0.142501
 C        -0.967345         0.505617         0.745653
 C        -1.201085         1.975581         1.163939
 C        -2.369084         1.118084         1.834287
 C        -1.274587         0.192562         2.220985
 C        -3.789154         1.747245         2.045080
 C        -4.403024         1.716426         0.378477
 O        -3.294916         1.131802        -0.393529
 C        -2.498548         0.350720         0.494282
 H         0.192490        -0.840300         0.274194
 H        -0.538067         2.462651         1.917922
 H        -1.600268         2.602807         0.321800
 H        -0.658388         0.558973         3.000715
 H        -1.645624        -0.799275         2.492878
 H        -4.445331         1.122503         2.675880
 H        -3.708184         2.675725         2.575280
 H        -5.205609         0.956744         0.389169
 H        -4.605768         2.702650        -0.150046
 H        -2.778749        -0.701473         0.612660
