19
Iteration:  1015
 O         0.046090         0.146501        -0.120784
 C        -0.997072         0.462538         0.750020
 C        -1.229840         1.923988         1.166534
 C        -2.368302         1.219720         1.800953
 C        -1.253497         0.013887         2.175564
 C        -3.854246         1.882349         1.894935
 C        -4.310875         1.612536         0.492761
 O        -3.325078         1.121687        -0.320586
 C        -2.565195         0.372768         0.501423
 H         0.229111        -0.828869         0.074272
 H        -0.675119         2.400793         1.951496
 H        -1.584701         2.680923         0.445117
 H        -0.603354         0.354137         3.015707
 H        -1.517170        -1.015889         2.292318
 H        -4.456890         1.542713         2.759873
 H        -3.760137         3.021541         2.030353
 H        -5.108636         0.846831         0.466973
 H        -4.635810         2.495843        -0.004627
 H        -2.948472        -0.675030         0.774092
