19
Iteration:  1709
 O         0.179798        -0.006177         0.130920
 C        -0.976791         0.552322         0.665819
 C        -1.380464         1.959399         1.147038
 C        -2.414293         1.016111         1.671409
 C        -1.314334         0.131591         2.163841
 C        -3.636223         1.683053         2.097615
 C        -4.255450         1.830471         0.560251
 O        -3.464468         1.168964        -0.442879
 C        -2.572744         0.371819         0.367946
 H        -0.025342        -0.075688        -0.819406
 H        -0.755103         2.460291         1.941818
 H        -1.707093         2.647277         0.379925
 H        -0.772475         0.320941         3.107391
 H        -1.662950        -0.988557         2.078157
 H        -4.268704         1.065612         2.695447
 H        -3.592786         2.711298         2.441345
 H        -5.230129         1.391883         0.397556
 H        -4.309120         2.907217         0.346310
 H        -2.989599        -0.623216         0.472999
