19
Iteration:  2235charge 0 multiplicity 1
 O        -0.035233         0.031341        -0.241935
 C        -0.968846         0.521670         0.646492
 C        -1.330744         1.983495         1.069742
 C        -2.394148         1.171065         1.927739
 C        -1.241697         0.160561         2.309429
 C        -3.758928         1.943362         2.064260
 C        -4.346271         1.609335         0.412162
 O        -3.318182         0.971651        -0.344982
 C        -2.489142         0.326719         0.566095
 H         0.777665         0.562902        -0.261822
 H        -0.637080         2.516676         1.778569
 H        -1.759817         2.706549         0.362520
 H        -0.343175         0.451801         2.823733
 H        -1.629845        -0.811792         2.555366
 H        -4.621358         1.477449         2.690172
 H        -3.572796         2.979777         2.348479
 H        -5.079065         0.750336         0.718710
 H        -4.770248         2.473460        -0.101654
 H        -2.830901        -0.796503         0.655014
