19
Iteration:   920charge 0 multiplicity 1
 O         0.038525        -0.122030         0.011491
 C        -0.943592         0.540292         0.715535
 C        -1.314335         2.099693         1.084605
 C        -2.350311         1.204338         1.758990
 C        -1.271305         0.233046         2.266311
 C        -3.784212         1.626970         2.014012
 C        -4.390771         1.715166         0.500785
 O        -3.259459         1.124172        -0.395565
 C        -2.549590         0.331379         0.446621
 H        -0.139159        -0.049747        -0.916144
 H        -0.661583         2.554545         1.804668
 H        -1.539675         2.847924         0.240048
 H        -0.528106         0.647317         2.973215
 H        -1.399728        -0.824653         2.524609
 H        -4.421147         0.940197         2.549433
 H        -3.985500         2.563364         2.491830
 H        -5.359178         1.146606         0.428577
 H        -4.574902         2.744020         0.112960
 H        -3.074746        -0.658646         0.631263
