19
Iteration:  2791charge 0 multiplicity 1
 O         0.101218        -0.129892         0.010395
 C        -0.927455         0.555097         0.657205
 C        -1.284271         2.057247         0.934989
 C        -2.405260         1.270881         1.776247
 C        -1.252504         0.250629         2.157009
 C        -3.757459         1.668656         2.086739
 C        -4.471231         1.607088         0.648916
 O        -3.345151         1.074045        -0.393301
 C        -2.504918         0.427588         0.504807
 H         0.125503         0.000396        -0.943949
 H        -0.586209         2.835439         1.453071
 H        -1.808696         2.585129         0.022676
 H        -0.521607         0.729591         2.855558
 H        -1.590138        -0.666047         2.656689
 H        -4.298826         0.934178         2.802580
 H        -3.683113         2.628660         2.669151
 H        -5.246982         0.864401         0.494399
 H        -5.019673         2.534087         0.318381
 H        -2.701018        -0.642811         0.742968
