19
Iteration:   277charge 0 multiplicity 1
 O         0.060344         0.116260        -0.042413
 C        -1.042310         0.562472         0.720081
 C        -1.379695         2.009820         1.010065
 C        -2.460607         0.993527         1.800084
 C        -1.289212         0.221039         2.296363
 C        -3.706690         1.748527         2.055931
 C        -4.200483         1.869329         0.417448
 O        -3.338614         1.000113        -0.395495
 C        -2.523629         0.213078         0.551530
 H        -0.052413        -0.850539        -0.128333
 H        -0.723584         2.745732         1.522333
 H        -1.758255         2.537878         0.080021
 H        -0.634643         0.604632         3.112048
 H        -1.546741        -0.857986         2.422113
 H        -4.395175         1.137221         2.673837
 H        -3.631118         2.798783         2.506046
 H        -5.284506         1.601431         0.253160
 H        -4.022587         2.845344        -0.011602
 H        -2.742328        -0.878844         0.495066
