19
Iteration:   816charge 0 multiplicity 1
 O         0.065533         0.086390        -0.170051
 C        -0.863764         0.521724         0.779633
 C        -1.290312         1.988406         1.081653
 C        -2.425666         1.167534         1.668527
 C        -1.353645         0.271273         2.350315
 C        -3.802741         1.685652         1.974787
 C        -4.197790         1.878116         0.472658
 O        -3.492754         0.864663        -0.303812
 C        -2.542019         0.287554         0.473867
 H         0.847219        -0.187567         0.311764
 H        -0.663750         2.624917         1.711383
 H        -1.564775         2.422735         0.127506
 H        -0.734859         0.768601         3.048012
 H        -1.752752        -0.711682         2.664858
 H        -4.330485         0.788032         2.390315
 H        -3.805402         2.576050         2.644092
 H        -5.243846         1.730887         0.233045
 H        -3.886370         2.898770         0.315892
 H        -2.801620        -0.777213         0.645103
