19
Iteration:   566charge 0 multiplicity 1
 O         0.061710         0.183574        -0.067010
 C        -0.970951         0.525754         0.752338
 C        -1.356127         1.919269         1.012752
 C        -2.383099         1.168739         1.852271
 C        -1.194056         0.054944         2.233180
 C        -3.874029         1.756109         1.926208
 C        -4.099588         1.920182         0.398984
 O        -3.481829         0.932149        -0.323648
 C        -2.608643         0.216531         0.605471
 H         0.876237         0.090452         0.428487
 H        -0.570751         2.529730         1.445735
 H        -1.780151         2.300697         0.014979
 H        -0.513864         0.445092         2.928524
 H        -1.545170        -1.005947         2.203018
 H        -4.628921         1.229890         2.527061
 H        -3.915418         2.816684         2.267813
 H        -5.171367         1.838659         0.197524
 H        -3.814997         2.989174         0.264688
 H        -2.859178        -0.870043         0.734541
