19
Iteration:  3177charge 0 multiplicity 1
 O         0.043209         0.092066        -0.124844
 C        -1.041647         0.506355         0.687027
 C        -1.279418         1.984610         1.016225
 C        -2.399777         1.196347         1.738596
 C        -1.297824         0.169000         2.229657
 C        -3.672074         1.775618         2.059103
 C        -4.413301         1.584758         0.586865
 O        -3.349468         1.089596        -0.364921
 C        -2.490611         0.290770         0.501945
 H         0.771733         0.048305         0.530247
 H        -0.387052         2.417530         1.535788
 H        -1.457479         2.460046         0.026002
 H        -0.666372         0.793332         2.891906
 H        -1.812034        -0.700390         2.569312
 H        -4.180052         1.419048         3.000329
 H        -3.784383         2.888459         2.273062
 H        -5.264023         0.907169         0.543580
 H        -4.784111         2.416583         0.023361
 H        -2.878325        -0.688052         0.736572
