19
Iteration:  2316
 O         0.021542        -0.102293         0.016131
 C        -0.980568         0.543319         0.718029
 C        -1.141015         2.050945         0.909904
 C        -2.383731         1.262929         1.706479
 C        -1.215344         0.293203         2.137772
 C        -3.777922         1.651075         2.062863
 C        -4.431590         1.542031         0.597475
 O        -3.452988         1.200318        -0.304500
 C        -2.519114         0.334096         0.446352
 H         0.868166         0.184846         0.364590
 H        -0.216724         2.567629         1.341119
 H        -1.526464         2.676956         0.029790
 H        -0.607818         0.540180         2.987056
 H        -1.527253        -0.699762         2.379547
 H        -4.236599         0.917219         2.656229
 H        -3.859829         2.612424         2.626869
 H        -5.272569         0.727630         0.689311
 H        -5.022940         2.491406         0.289498
 H        -2.785138        -0.756295         0.435656
