19
Iteration:  4893
 O         0.072288        -0.008053         0.018466
 C        -0.959974         0.528202         0.698730
 C        -1.329466         2.019426         1.020525
 C        -2.367215         1.173490         1.768495
 C        -1.256843         0.240522         2.191810
 C        -3.846509         1.645319         2.048140
 C        -4.404602         1.621678         0.491033
 O        -3.253887         1.120397        -0.351733
 C        -2.532915         0.357116         0.481672
 H         0.330553         0.548221        -0.746496
 H        -0.611694         2.495083         1.793347
 H        -1.732760         2.501111         0.095614
 H        -0.372407         0.665856         2.860334
 H        -1.624908        -0.729602         2.609576
 H        -4.495683         1.086050         2.805358
 H        -3.891223         2.639491         2.492607
 H        -5.322346         1.010210         0.474444
 H        -4.673707         2.641832         0.168016
 H        -2.800848        -0.728877         0.511374
