19
Iteration:   281
 O         0.018019         0.125128        -0.010816
 C        -1.023143         0.547741         0.723208
 C        -1.375908         1.998215         0.991057
 C        -2.445704         1.031931         1.802396
 C        -1.324499         0.229060         2.264641
 C        -3.680077         1.731654         2.030492
 C        -4.199155         1.846952         0.434498
 O        -3.337312         1.008405        -0.392089
 C        -2.500027         0.228307         0.521501
 H        -0.191735        -0.842368        -0.084454
 H        -0.766003         2.751348         1.589393
 H        -1.777446         2.498190         0.106543
 H        -0.662407         0.607838         3.107122
 H        -1.534711        -0.873249         2.501472
 H        -4.343488         1.107585         2.687505
 H        -3.585843         2.650963         2.548360
 H        -5.230845         1.566907         0.311716
 H        -4.040552         2.859847         0.030552
 H        -2.651953        -0.868948         0.568363
