19
Iteration:  1268charge 0 multiplicity 1
 O         0.131197        -0.055525         0.077586
 C        -0.926513         0.493164         0.700870
 C        -1.229705         1.981794         1.069990
 C        -2.380066         1.172245         1.648391
 C        -1.433274         0.111602         2.178456
 C        -3.694945         1.717640         2.076670
 C        -4.447042         1.794280         0.599300
 O        -3.379732         1.120980        -0.385770
 C        -2.512210         0.363168         0.362796
 H         0.418454         0.564221        -0.646721
 H        -0.763460         2.657230         1.797662
 H        -1.648471         2.623252         0.361665
 H        -0.705871         0.418126         2.902472
 H        -1.828385        -0.943420         2.460930
 H        -4.199601         0.981299         2.683653
 H        -3.465883         2.714392         2.507414
 H        -5.359022         1.094709         0.454419
 H        -4.597352         2.802978         0.371369
 H        -2.861992        -0.612757         0.534968
