19
Iteration:  4062charge 0 multiplicity 1
 O         0.110246         0.006041        -0.080194
 C        -1.007345         0.531975         0.664553
 C        -1.233724         2.016674         1.047165
 C        -2.410194         1.180380         1.772291
 C        -1.313198         0.230333         2.253203
 C        -3.768111         1.786396         2.050988
 C        -4.413139         1.580974         0.517355
 O        -3.297918         1.137010        -0.371530
 C        -2.550403         0.250704         0.555599
 H         0.177111         0.474069        -0.951003
 H        -0.484924         2.435313         1.774998
 H        -1.583873         2.711209         0.312166
 H        -0.589391         0.499078         2.981698
 H        -1.583948        -0.843117         2.550535
 H        -4.373373         1.112085         2.639630
 H        -3.744784         2.859529         2.348752
 H        -5.001329         0.699845         0.669883
 H        -4.830181         2.460572         0.022807
 H        -3.100743        -0.667521         0.679503
