19
Iteration:   491
 O         0.150132        -0.073003         0.085181
 C        -1.053248         0.505642         0.710930
 C        -1.338896         1.996258         0.966090
 C        -2.364219         1.191947         1.764234
 C        -1.223789         0.253994         2.181092
 C        -3.849930         1.604541         1.966818
 C        -4.252262         1.775176         0.515947
 O        -3.317094         1.127162        -0.324353
 C        -2.602906         0.344208         0.534260
 H        -0.039711         0.103597        -0.892340
 H        -0.626449         2.506611         1.590471
 H        -1.688161         2.676738         0.127620
 H        -0.452378         0.635579         2.861702
 H        -1.715568        -0.797774         2.352566
 H        -4.480711         0.817300         2.287527
 H        -4.110388         2.470453         2.565840
 H        -5.241909         1.415445         0.439523
 H        -4.240266         2.878023         0.254244
 H        -2.978085        -0.677967         0.710702
