19
Iteration:  2682charge 0 multiplicity 1
 O        -0.043977         0.042302        -0.242859
 C        -1.003197         0.531130         0.687357
 C        -1.372955         2.047608         1.120654
 C        -2.347560         1.148009         1.791359
 C        -1.072942         0.293513         2.280569
 C        -3.863583         1.670577         1.951350
 C        -4.215118         1.885416         0.438604
 O        -3.487494         0.832059        -0.277975
 C        -2.483729         0.206097         0.616496
 H         0.849521         0.399408        -0.009806
 H        -0.733668         2.733150         1.777637
 H        -1.847536         2.674489         0.291176
 H        -0.312809         0.829608         2.837736
 H        -1.171543        -0.748665         2.552677
 H        -4.565085         1.001075         2.484162
 H        -3.743778         2.620208         2.458690
 H        -5.335762         1.809089         0.193463
 H        -3.815809         2.914277         0.308143
 H        -2.997786        -0.668337         0.931429
