19
Iteration:    70
 O         0.094006         0.028390         0.012372
 C        -0.963042         0.485484         0.789811
 C        -1.308809         1.944092         1.000682
 C        -2.362210         1.189715         1.724345
 C        -1.314080         0.219937         2.368787
 C        -3.710685         1.864896         1.945391
 C        -4.382404         1.536762         0.633678
 O        -3.398324         1.149978        -0.468394
 C        -2.450996         0.351022         0.428164
 H        -0.308140        -0.384229        -0.729385
 H        -0.481666         2.524435         1.528277
 H        -1.590613         2.472739         0.015465
 H        -0.651920         0.662638         3.171375
 H        -1.718242        -0.877657         2.534675
 H        -4.267692         1.283379         2.674632
 H        -3.656468         2.938190         2.333917
 H        -5.049334         0.656845         0.658194
 H        -4.921481         2.291300         0.141303
 H        -3.047879        -0.559659         0.414813
