19
Iteration:  2372
 O        -0.079327         0.056738        -0.175795
 C        -1.036527         0.547340         0.673094
 C        -1.236014         1.989566         0.966091
 C        -2.390193         1.170546         1.779878
 C        -1.238688         0.202557         2.317957
 C        -3.772846         1.724593         2.044748
 C        -4.351840         1.692343         0.553668
 O        -3.327263         0.979207        -0.340777
 C        -2.463579         0.324075         0.595861
 H         0.714461         0.630558        -0.202303
 H        -0.577659         2.625481         1.604994
 H        -1.594621         2.519022         0.013151
 H        -0.601675         0.609585         3.064032
 H        -1.652059        -0.781814         2.437762
 H        -4.373580         1.139312         2.695410
 H        -3.625402         2.733133         2.444403
 H        -5.327619         1.175183         0.327427
 H        -4.427895         2.664508         0.007964
 H        -2.634220        -0.750629         0.829680
