19
Iteration:  1545charge 0 multiplicity 1
 O         0.226375         0.071774         0.067919
 C        -1.015796         0.509869         0.699990
 C        -1.289044         2.065709         1.071748
 C        -2.404353         1.046067         1.716399
 C        -1.324234         0.074505         2.096822
 C        -3.719160         1.592666         2.110965
 C        -4.231859         1.977239         0.557125
 O        -3.483584         1.068739        -0.381435
 C        -2.613174         0.339428         0.385379
 H         0.048838        -0.856599        -0.249050
 H        -0.818479         2.546558         1.916479
 H        -1.635286         2.899533         0.404064
 H        -0.640340         0.285685         2.953142
 H        -1.892338        -0.876405         2.225904
 H        -4.515121         0.992426         2.481380
 H        -3.646769         2.533634         2.655135
 H        -5.345664         1.756577         0.474267
 H        -3.987945         2.979257         0.172911
 H        -2.752211        -0.813539         0.454948
