19
Iteration:  2037
 O         0.065488        -0.006407         0.013618
 C        -0.994103         0.473706         0.713468
 C        -1.342032         1.910140         0.858769
 C        -2.357008         1.255197         1.760545
 C        -1.129088         0.178477         2.185982
 C        -3.859362         1.585239         2.005318
 C        -4.312192         1.823909         0.564299
 O        -3.453899         1.090184        -0.283698
 C        -2.519639         0.344369         0.554010
 H         0.570070         0.817423        -0.255663
 H        -0.499836         2.418454         1.421660
 H        -1.625879         2.593150        -0.038301
 H        -0.417141         0.484158         2.865894
 H        -1.640856        -0.738103         2.406840
 H        -4.326915         0.662541         2.488304
 H        -4.026417         2.537328         2.596062
 H        -5.359444         1.747407         0.070660
 H        -3.941839         2.889538         0.483091
 H        -2.837745        -0.653699         0.713931
