19
Iteration:  1139charge 0 multiplicity 1
 O         0.098878         0.245547        -0.046324
 C        -0.912241         0.489726         0.733410
 C        -1.292631         1.988303         1.111816
 C        -2.400821         1.065695         1.760159
 C        -1.326599         0.073440         2.271564
 C        -3.781547         1.719903         1.950968
 C        -4.129994         1.956742         0.495659
 O        -3.506766         0.923200        -0.340193
 C        -2.577342         0.231647         0.478545
 H        -0.086041        -0.641598        -0.450446
 H        -0.623952         2.668672         1.768826
 H        -1.675437         2.536959         0.261205
 H        -0.579209         0.220826         2.999975
 H        -1.722195        -0.950546         2.306177
 H        -4.602915         1.251816         2.601121
 H        -3.757057         2.810600         2.164854
 H        -5.230551         1.960722         0.323480
 H        -3.766601         2.980381         0.159097
 H        -2.852105        -0.885257         0.563084
