19
Iteration:  4322
 O         0.183759         0.050600        -0.015275
 C        -0.914212         0.476332         0.721458
 C        -1.099722         2.073373         1.051161
 C        -2.334091         1.244827         1.749660
 C        -1.272305         0.161236         2.230770
 C        -3.828181         1.717848         1.977758
 C        -4.523040         1.512543         0.542836
 O        -3.522927         1.169786        -0.401484
 C        -2.561859         0.385746         0.464323
 H         0.473217        -0.844392         0.230447
 H        -0.271329         2.425585         1.699795
 H        -1.349030         2.684554         0.185358
 H        -0.631300         0.722616         2.867977
 H        -1.531661        -0.905327         2.594260
 H        -4.353077         1.183915         2.743258
 H        -3.928478         2.787996         2.322811
 H        -5.333828         0.706353         0.610842
 H        -4.750362         2.468668         0.064020
 H        -2.973635        -0.650558         0.623118
