19
Iteration:  2300charge 0 multiplicity 1
 O         0.084858        -0.075206        -0.108206
 C        -0.942905         0.521683         0.660794
 C        -1.235001         2.039059         0.903553
 C        -2.282283         1.286823         1.686905
 C        -1.411625         0.236099         2.284125
 C        -3.735240         1.677115         2.066363
 C        -4.492870         1.527248         0.646244
 O        -3.383566         1.146480        -0.328278
 C        -2.485881         0.429247         0.496895
 H         0.951839        -0.028623         0.312660
 H        -0.673091         2.620624         1.612351
 H        -1.433630         2.584740         0.013063
 H        -0.569086         0.578889         2.901634
 H        -1.852943        -0.786952         2.500507
 H        -4.055863         0.917284         2.870446
 H        -3.902246         2.687979         2.438562
 H        -5.320003         0.779159         0.530874
 H        -4.890522         2.424749         0.186513
 H        -2.921840        -0.563776         0.806009
