19
Iteration:  1755
 O         0.041707         0.037920        -0.171843
 C        -0.960616         0.459617         0.736252
 C        -1.274160         1.983445         1.082517
 C        -2.418571         1.152634         1.851938
 C        -1.402736         0.128771         2.220537
 C        -3.860031         1.539016         1.967650
 C        -4.145771         1.988414         0.552350
 O        -3.331327         1.056190        -0.404337
 C        -2.570218         0.312513         0.607468
 H         0.433243         0.897135        -0.519975
 H        -0.504067         2.531406         1.679177
 H        -1.499020         2.556411         0.184869
 H        -0.661143         0.534522         2.955394
 H        -1.651082        -0.971716         2.578633
 H        -4.439477         0.625450         2.226504
 H        -4.009938         2.288748         2.698890
 H        -5.181228         1.848553         0.257673
 H        -3.776252         3.029990         0.304800
 H        -2.970978        -0.667368         0.761081
