19
Iteration:  4769charge 0 multiplicity 1
 O         0.206042         0.244299         0.107966
 C        -1.023673         0.518217         0.672296
 C        -1.470483         1.940143         0.923898
 C        -2.372664         1.104960         1.726896
 C        -1.215210         0.208028         2.102202
 C        -3.833949         1.636949         2.002098
 C        -4.167671         1.946800         0.552101
 O        -3.435069         0.907343        -0.302684
 C        -2.551576         0.238762         0.457821
 H         0.404819        -0.674273         0.432633
 H        -0.945614         2.696103         1.549482
 H        -1.993312         2.471083         0.076697
 H        -0.639291         0.393846         2.928405
 H        -1.484668        -0.849545         2.308170
 H        -4.540665         0.896192         2.376808
 H        -3.865912         2.502804         2.720948
 H        -5.278396         1.772045         0.549740
 H        -3.927538         2.916691         0.197849
 H        -2.913963        -0.715976         0.859254
