19
Iteration:  2010
 O         0.181758        -0.028099         0.047621
 C        -0.929377         0.546712         0.657218
 C        -1.310179         2.045668         0.956078
 C        -2.399906         1.142464         1.665829
 C        -1.282196         0.245882         2.231119
 C        -3.704595         1.647803         2.111887
 C        -4.303897         1.807669         0.607012
 O        -3.472898         1.078533        -0.362311
 C        -2.624913         0.274971         0.430354
 H        -0.035309        -0.218682        -0.905229
 H        -0.535862         2.374086         1.630173
 H        -1.633540         2.763057         0.276416
 H        -0.777099         0.780427         3.122483
 H        -1.648800        -0.761114         2.516686
 H        -4.258379         0.805416         2.480583
 H        -3.749890         2.473718         2.815442
 H        -5.252914         1.368699         0.398663
 H        -4.302438         2.847974         0.305702
 H        -2.959582        -0.815958         0.615843
