19
Iteration:   144
 O         0.047802        -0.100771        -0.092908
 C        -0.948685         0.598290         0.706638
 C        -1.271473         1.994239         0.994300
 C        -2.392434         1.208259         1.696156
 C        -1.428425         0.267865         2.324863
 C        -3.767750         1.721080         1.982267
 C        -4.321205         1.692610         0.581864
 O        -3.305160         1.060146        -0.354303
 C        -2.495783         0.294590         0.532705
 H         0.754954         0.514030        -0.384381
 H        -0.671159         2.472489         1.749076
 H        -1.693822         2.601061         0.193781
 H        -0.985176         0.600335         3.219000
 H        -1.649095        -0.781643         2.359191
 H        -4.183769         1.101488         2.720964
 H        -3.816393         2.750849         2.418107
 H        -5.223602         1.077099         0.448843
 H        -4.521796         2.663327         0.198238
 H        -2.857828        -0.719649         0.539309
