19
Iteration:   628
 O         0.077911        -0.015356         0.029326
 C        -0.969164         0.517365         0.718058
 C        -1.227631         2.056406         0.976182
 C        -2.422537         1.300354         1.754603
 C        -1.203429         0.196446         2.190202
 C        -3.901641         1.537648         1.965860
 C        -4.326812         1.871728         0.494554
 O        -3.343865         1.054298        -0.336218
 C        -2.531012         0.356921         0.588307
 H        -0.091420        -0.941315        -0.066726
 H        -0.532665         2.712139         1.532363
 H        -1.612703         2.442069        -0.009167
 H        -0.386386         0.479105         2.907875
 H        -1.654827        -0.769824         2.518489
 H        -4.305437         0.497890         2.271213
 H        -3.997654         2.452715         2.602345
 H        -5.303397         1.239047         0.214455
 H        -4.371738         2.826649        -0.027732
 H        -2.973708        -0.636248         0.853025
