19
Iteration:  3384
 O         0.095243        -0.055716         0.043985
 C        -0.973810         0.541755         0.718753
 C        -1.423504         2.107467         0.889608
 C        -2.362988         1.097332         1.713468
 C        -1.144214         0.256385         2.186749
 C        -3.809719         1.674242         2.060910
 C        -4.363240         1.702484         0.615228
 O        -3.344157         1.137183        -0.334334
 C        -2.468378         0.267650         0.487619
 H        -0.199265        -0.215690        -0.865632
 H        -0.805912         2.697406         1.546373
 H        -1.940800         2.637579         0.144854
 H        -0.562611         0.760466         2.975894
 H        -1.361961        -0.782109         2.329703
 H        -4.500707         0.978593         2.551976
 H        -3.861408         2.604714         2.620973
 H        -5.393189         1.306019         0.575353
 H        -4.516633         2.679174         0.234937
 H        -2.791355        -0.780228         0.602959
