19
Iteration:  1385charge 0 multiplicity 1
 O         0.129966        -0.119687         0.011371
 C        -0.969091         0.507624         0.654390
 C        -1.225046         1.974758         1.023017
 C        -2.353301         1.148270         1.734615
 C        -1.286140         0.127958         2.153185
 C        -3.868293         1.606668         2.079381
 C        -4.460038         1.771108         0.545942
 O        -3.344447         1.284537        -0.368209
 C        -2.568928         0.379374         0.492893
 H         0.964493         0.346653         0.353471
 H        -0.380961         2.312141         1.645890
 H        -1.505004         2.733719         0.252016
 H        -0.573492         0.618342         2.779708
 H        -1.604851        -0.859931         2.538392
 H        -4.488839         0.936500         2.669806
 H        -3.882459         2.633919         2.347836
 H        -5.250333         1.207055         0.190191
 H        -4.637354         2.846903         0.438846
 H        -2.917320        -0.645325         0.424547
