19
Iteration:  3981charge 0 multiplicity 1
 O         0.133297        -0.009430         0.094699
 C        -0.943464         0.553294         0.747515
 C        -1.266801         2.031612         0.827672
 C        -2.375952         1.081081         1.698235
 C        -1.176027         0.217216         2.274124
 C        -3.740387         1.642863         2.059357
 C        -4.341598         1.753966         0.574187
 O        -3.424200         1.140114        -0.327899
 C        -2.661390         0.263320         0.449817
 H         0.109172         0.557996        -0.701004
 H        -0.751770         2.664633         1.521756
 H        -1.745346         2.488961        -0.093098
 H        -0.501545         0.781006         3.040337
 H        -1.348741        -0.828874         2.524678
 H        -4.454178         0.913602         2.502446
 H        -3.936205         2.574524         2.585965
 H        -5.286881         1.221558         0.531696
 H        -4.735874         2.640802         0.183677
 H        -3.095406        -0.670683         0.207460
