19
Iteration:  3069charge 0 multiplicity 1
 O        -0.019354        -0.125655        -0.041799
 C        -0.994731         0.579331         0.683849
 C        -1.295413         2.057532         0.871809
 C        -2.373274         1.161371         1.751806
 C        -1.149730         0.341366         2.213939
 C        -3.871948         1.505123         2.063638
 C        -4.356310         1.829562         0.636592
 O        -3.330730         1.084133        -0.329208
 C        -2.510825         0.310573         0.477919
 H         0.833984         0.331486         0.160032
 H        -0.779332         2.622244         1.694738
 H        -1.724543         2.751293         0.098152
 H        -0.252141         0.655556         2.871965
 H        -1.437841        -0.731581         2.628699
 H        -4.461384         0.616057         2.452977
 H        -4.128240         2.442695         2.699934
 H        -5.386489         1.490390         0.289678
 H        -4.199873         2.866792         0.298822
 H        -2.716066        -0.845740         0.478402
