19
Iteration:  4930
 O         0.238114         0.065540         0.060032
 C        -0.931028         0.543912         0.665832
 C        -1.180862         1.981988         1.099725
 C        -2.380430         1.189692         1.711035
 C        -1.370522         0.193474         2.188664
 C        -3.742546         1.714768         2.057513
 C        -4.485367         1.666201         0.567407
 O        -3.541031         0.954677        -0.380968
 C        -2.513188         0.393680         0.394714
 H         0.708469         0.788622        -0.360135
 H        -0.542340         2.574451         1.655651
 H        -1.352756         2.615589         0.201677
 H        -0.586341         0.343818         2.873620
 H        -1.860913        -0.822809         2.501460
 H        -4.240942         1.055507         2.762234
 H        -3.664442         2.779218         2.409003
 H        -5.389802         1.099012         0.385931
 H        -4.676822         2.675552         0.092858
 H        -2.778539        -0.684548         0.531023
