19
Iteration:  3801
 O        -0.077568        -0.107480        -0.087898
 C        -0.923773         0.642012         0.779168
 C        -1.219484         2.091715         0.957713
 C        -2.401912         1.256353         1.738370
 C        -1.237900         0.240180         2.202273
 C        -3.856447         1.533843         2.074117
 C        -4.378313         1.703776         0.533020
 O        -3.330214         1.080971        -0.328142
 C        -2.440201         0.339849         0.504885
 H         0.792964         0.311121        -0.252137
 H        -0.592137         2.839094         1.526269
 H        -1.494660         2.542171         0.003255
 H        -0.556143         0.512010         2.963455
 H        -1.533429        -0.794428         2.604925
 H        -4.183542         0.660243         2.626138
 H        -3.956746         2.453775         2.713309
 H        -5.400163         1.196757         0.430554
 H        -4.723886         2.666523         0.176730
 H        -2.810824        -0.698918         0.523360
