19
Iteration:  3352
 O         0.138145         0.031143        -0.019454
 C        -0.971120         0.447947         0.670526
 C        -1.307713         2.021318         0.915984
 C        -2.374871         1.157992         1.707361
 C        -1.222946         0.329367         2.241961
 C        -3.810930         1.555215         2.009081
 C        -4.224257         1.882847         0.609054
 O        -3.503648         0.948323        -0.312791
 C        -2.586750         0.274257         0.536105
 H         0.226352         0.793655        -0.659822
 H        -0.593312         2.544424         1.548091
 H        -1.725083         2.699774         0.202393
 H        -0.597502         0.936621         2.900966
 H        -1.408512        -0.632739         2.620895
 H        -4.305346         0.592796         2.291616
 H        -4.043954         2.365853         2.697327
 H        -5.378312         1.836383         0.428057
 H        -3.758190         2.758749         0.218487
 H        -3.062536        -0.648214         0.923084
