19
Iteration:  1033
 O        -0.003224         0.073782        -0.157621
 C        -1.000742         0.509352         0.722081
 C        -1.212615         2.035857         1.189876
 C        -2.470052         1.135685         1.839042
 C        -1.219021         0.090571         2.240110
 C        -3.790389         1.829398         2.010034
 C        -4.435410         1.695062         0.429950
 O        -3.259461         1.110586        -0.444144
 C        -2.493376         0.315218         0.578025
 H         0.211246        -0.804063         0.279608
 H        -0.266229         2.461340         1.712520
 H        -1.346443         2.684648         0.378477
 H        -0.361027         0.321767         2.945418
 H        -1.696465        -0.962730         2.476825
 H        -4.489345         1.213702         2.548299
 H        -3.724420         2.792635         2.487652
 H        -5.335602         1.043293         0.402901
 H        -4.859204         2.595802        -0.071718
 H        -2.945101        -0.662837         0.487496
