19
Iteration:  3973
 O         0.145095        -0.041878         0.003062
 C        -0.950706         0.490500         0.776235
 C        -1.300399         1.992773         0.835812
 C        -2.394587         1.116994         1.736510
 C        -1.206352         0.310042         2.292628
 C        -3.816837         1.610332         2.047259
 C        -4.298102         1.764820         0.574653
 O        -3.402420         1.178537        -0.344678
 C        -2.615471         0.254446         0.460914
 H         0.038342         0.612646        -0.721007
 H        -0.878955         2.731774         1.572419
 H        -1.753332         2.550369         0.026059
 H        -0.568030         0.919066         2.946012
 H        -1.440427        -0.794087         2.471006
 H        -4.288652         0.699931         2.481705
 H        -4.046524         2.496834         2.720982
 H        -5.145891         1.092060         0.656949
 H        -4.344341         2.804527         0.198651
 H        -2.936365        -0.823421         0.562627
