19
Iteration:  4854
 O         0.006036         0.046890        -0.071318
 C        -0.930802         0.591218         0.787745
 C        -1.335058         2.037712         1.052391
 C        -2.422411         1.183511         1.801108
 C        -1.220618         0.189654         2.252564
 C        -3.810292         1.602182         1.982092
 C        -4.369491         1.696278         0.493002
 O        -3.254000         1.072683        -0.362846
 C        -2.436961         0.315724         0.510912
 H        -0.589384        -0.318604        -0.752780
 H        -0.832632         2.645028         1.731524
 H        -1.784534         2.710935         0.289741
 H        -0.639883         0.800145         2.840046
 H        -1.709487        -0.785712         2.548059
 H        -4.334642         0.885331         2.576875
 H        -3.884721         2.645341         2.385783
 H        -5.257088         1.100380         0.268743
 H        -4.408445         2.706003         0.011465
 H        -2.749075        -0.737976         0.628444
