19
Iteration:  3630
 O         0.081787         0.016182        -0.144152
 C        -0.917719         0.585255         0.730284
 C        -1.229726         2.063310         1.077679
 C        -2.407585         1.152886         1.794244
 C        -1.231044         0.255424         2.278268
 C        -3.805908         1.706712         2.027538
 C        -4.369136         1.683692         0.533857
 O        -3.442461         0.980757        -0.393580
 C        -2.460874         0.341444         0.526746
 H        -0.415992        -0.278303        -0.924026
 H        -0.650149         2.570895         1.896065
 H        -1.682213         2.590753         0.249691
 H        -0.571112         0.725963         2.987946
 H        -1.572655        -0.762932         2.562823
 H        -4.296252         0.858120         2.559388
 H        -3.990829         2.621655         2.630225
 H        -5.394884         1.235368         0.440685
 H        -4.354609         2.743050         0.088156
 H        -2.707103        -0.761927         0.622758
