19
Iteration:  2065charge 0 multiplicity 1
 O        -0.006049         0.020626        -0.227482
 C        -1.029087         0.611169         0.636593
 C        -1.352599         2.007999         1.078246
 C        -2.438944         1.074616         1.810662
 C        -1.284660         0.291502         2.270735
 C        -3.746523         1.681787         2.014329
 C        -4.180442         1.882826         0.570370
 O        -3.410194         0.887352        -0.352923
 C        -2.473179         0.286286         0.544100
 H         0.748759        -0.219091         0.380558
 H        -0.728805         2.530198         1.796288
 H        -1.594465         2.698480         0.336551
 H        -0.572696         0.869379         2.975115
 H        -1.565928        -0.746200         2.613818
 H        -4.492933         1.028002         2.385191
 H        -3.682186         2.577799         2.634351
 H        -5.206228         1.646857         0.413435
 H        -4.038664         2.853884         0.105676
 H        -2.626265        -0.850123         0.669384
