19
Iteration:  1984
 O         0.085275         0.023531        -0.046963
 C        -0.906754         0.543552         0.718069
 C        -1.270469         2.081240         1.090085
 C        -2.416460         1.096290         1.800723
 C        -1.214342         0.078408         2.163459
 C        -3.773401         1.800872         2.004320
 C        -4.399383         1.762732         0.588551
 O        -3.480707         1.031984        -0.338172
 C        -2.453890         0.375781         0.406830
 H        -0.056549        -0.960819        -0.153718
 H        -0.490933         2.658364         1.638760
 H        -1.799462         2.605290         0.191608
 H        -0.466642         0.536996         2.896348
 H        -1.460440        -0.993244         2.430653
 H        -4.586764         1.324310         2.613990
 H        -3.636958         2.779657         2.427946
 H        -5.306665         1.175946         0.334358
 H        -4.514675         2.813901         0.205903
 H        -2.613550        -0.733581         0.448078
