19
Iteration:  2123
 O         0.198705         0.133722        -0.124320
 C        -1.018389         0.467363         0.683587
 C        -1.274227         2.032074         0.995061
 C        -2.380828         1.199536         1.791039
 C        -1.269123         0.235636         2.271787
 C        -3.817766         1.691496         2.007663
 C        -4.269722         1.846915         0.500303
 O        -3.452844         0.951668        -0.256822
 C        -2.595932         0.165779         0.575071
 H        -0.040936        -0.008086        -1.039916
 H        -0.613030         2.477571         1.681941
 H        -1.506330         2.451206        -0.009441
 H        -0.483284         0.602878         2.872932
 H        -1.588505        -0.735021         2.699091
 H        -4.433933         0.904889         2.513358
 H        -3.910766         2.692205         2.553785
 H        -5.360672         1.615190         0.276547
 H        -3.914690         2.822245         0.209917
 H        -3.043885        -0.897976         0.587045
