19
Iteration:  2059
 O         0.026680        -0.005451        -0.218767
 C        -0.966902         0.593642         0.674276
 C        -1.314851         2.020573         1.035413
 C        -2.429814         1.100817         1.818524
 C        -1.245033         0.239878         2.275680
 C        -3.806530         1.662225         2.018263
 C        -4.215129         1.921125         0.536260
 O        -3.416283         0.931735        -0.339182
 C        -2.538881         0.265038         0.555321
 H         0.815127         0.061365         0.354397
 H        -0.737295         2.734702         1.683881
 H        -1.696682         2.595699         0.074658
 H        -0.579800         0.728100         2.905808
 H        -1.433344        -0.774818         2.561837
 H        -4.564852         0.852028         2.325135
 H        -3.810994         2.574031         2.683972
 H        -5.304916         1.545934         0.589251
 H        -4.052348         2.940645         0.135744
 H        -2.677688        -0.767198         0.773876
