19
Iteration:  2006
 O         0.191504        -0.038002         0.037497
 C        -0.914557         0.560455         0.658689
 C        -1.332513         2.022749         0.984509
 C        -2.397713         1.138669         1.650267
 C        -1.270715         0.248221         2.235538
 C        -3.709608         1.658170         2.089611
 C        -4.316908         1.796125         0.589948
 O        -3.483278         1.081248        -0.357868
 C        -2.591003         0.288087         0.424092
 H        -0.219407        -0.316972        -0.791502
 H        -0.623850         2.382210         1.763172
 H        -1.662700         2.800732         0.197498
 H        -0.768371         0.697082         3.132585
 H        -1.635848        -0.772102         2.510710
 H        -4.263503         0.847310         2.655272
 H        -3.676470         2.525023         2.741416
 H        -5.375039         1.415101         0.531027
 H        -4.301034         2.891822         0.364204
 H        -2.880250        -0.754091         0.562408
