19
Iteration:   186charge 0 multiplicity 1
 O         0.127062        -0.025719         0.026055
 C        -0.947966         0.567063         0.734491
 C        -1.272184         2.022783         1.017404
 C        -2.452113         1.090687         1.794850
 C        -1.123388         0.218231         2.280696
 C        -3.854186         1.673899         1.913532
 C        -4.294349         1.884866         0.505506
 O        -3.426234         1.049600        -0.395738
 C        -2.601171         0.258938         0.539825
 H        -0.186008        -0.461803        -0.743114
 H        -0.637980         2.657898         1.570875
 H        -1.587107         2.581842         0.176188
 H        -0.459469         0.765408         2.893705
 H        -1.224543        -0.795134         2.527965
 H        -4.561702         0.918618         2.285478
 H        -4.031878         2.578834         2.518567
 H        -5.356653         1.579035         0.468289
 H        -4.237325         2.961814         0.196612
 H        -2.859320        -0.810534         0.724082
