19
Iteration:   572
 O         0.066939         0.164086        -0.089188
 C        -1.003783         0.537551         0.769684
 C        -1.396562         1.913511         1.004361
 C        -2.425317         1.144481         1.796234
 C        -1.248366         0.120943         2.243965
 C        -3.817590         1.774059         1.945965
 C        -4.108256         1.938923         0.461603
 O        -3.451996         0.933524        -0.345040
 C        -2.534858         0.180995         0.604269
 H         0.966793        -0.126868         0.293479
 H        -0.642300         2.559618         1.520249
 H        -1.826678         2.320377         0.143112
 H        -0.572301         0.494395         3.101686
 H        -1.435808        -0.945949         2.301155
 H        -4.544092         1.072538         2.463272
 H        -3.955312         2.714044         2.510825
 H        -5.212339         1.892037         0.186959
 H        -3.755754         2.918754         0.064174
 H        -2.927523        -0.830137         0.584309
