19
Iteration:  4806
 O         0.160748         0.248174        -0.014424
 C        -0.937820         0.497794         0.690205
 C        -1.253568         1.904305         1.082770
 C        -2.444956         1.119922         1.718798
 C        -1.261511         0.201298         2.338594
 C        -3.821807         1.681834         1.973526
 C        -4.327186         1.859136         0.549721
 O        -3.561989         0.918491        -0.363564
 C        -2.460761         0.299476         0.414351
 H         0.470013        -0.664829        -0.022689
 H        -0.512723         2.532993         1.691071
 H        -1.575709         2.454969         0.203470
 H        -0.541625         0.883279         2.920943
 H        -1.349290        -0.826021         2.491379
 H        -4.586872         0.893430         2.378708
 H        -3.731008         2.645000         2.447793
 H        -5.398081         1.642804         0.424334
 H        -4.002732         2.771011         0.010136
 H        -2.743589        -0.803512         0.423856
