19
Iteration:  3299charge 0 multiplicity 1
 O         0.057950         0.131520        -0.182916
 C        -0.972259         0.567837         0.673523
 C        -1.371999         1.992436         1.175832
 C        -2.428276         1.110114         1.784825
 C        -1.132471         0.227936         2.216414
 C        -3.699577         1.811801         1.951265
 C        -4.263880         1.886247         0.479713
 O        -3.522050         0.786421        -0.305053
 C        -2.603474         0.148764         0.578565
 H         0.856897         0.715708        -0.054087
 H        -0.789621         2.454007         2.006102
 H        -1.414119         2.685813         0.338519
 H        -0.528806         0.624386         2.962906
 H        -1.492345        -0.716045         2.519350
 H        -4.417260         1.282956         2.618074
 H        -3.522720         2.804004         2.408345
 H        -5.389735         1.703857         0.379908
 H        -3.979280         2.657426        -0.128582
 H        -2.721922        -0.896132         0.565922
