19
Iteration:  2185
 O         0.125654        -0.125205        -0.021238
 C        -0.948305         0.488890         0.624021
 C        -1.261465         2.034966         0.980837
 C        -2.370475         1.290231         1.779665
 C        -1.220987         0.273499         2.171553
 C        -3.847191         1.648094         2.104960
 C        -4.426882         1.718534         0.545154
 O        -3.429932         1.055613        -0.357575
 C        -2.545513         0.333628         0.536630
 H         0.762751         0.549912        -0.231209
 H        -0.434076         2.693982         1.336919
 H        -1.574015         2.515199         0.066732
 H        -0.617189         0.970468         2.887474
 H        -1.307433        -0.857034         2.381351
 H        -4.171054         0.770513         2.566282
 H        -4.061994         2.473083         2.795900
 H        -5.399914         1.325085         0.389962
 H        -4.459710         2.833194         0.305394
 H        -2.899095        -0.665186         0.782908
