19
Iteration:  4532charge 0 multiplicity 1
 O        -0.075134         0.066898        -0.201077
 C        -0.959006         0.550963         0.737097
 C        -1.223967         2.106863         1.134810
 C        -2.339512         1.167975         1.822141
 C        -1.202337         0.233683         2.387622
 C        -3.813484         1.645345         1.896856
 C        -4.419266         1.658917         0.470211
 O        -3.380540         0.940501        -0.400244
 C        -2.457192         0.342398         0.530864
 H         0.809486         0.401446         0.075112
 H        -0.443584         2.461461         1.738075
 H        -1.667527         2.700198         0.329662
 H        -0.503383         0.801855         3.134125
 H        -1.390430        -0.812569         2.679220
 H        -4.379130         0.943178         2.562959
 H        -3.934786         2.635343         2.268817
 H        -5.365483         1.101538         0.235563
 H        -4.407131         2.685350         0.061590
 H        -2.931969        -0.557204         0.907053
