19
Iteration:  1359charge 0 multiplicity 1
 O        -0.071343        -0.058398        -0.120726
 C        -0.937050         0.561157         0.737593
 C        -1.193762         2.020235         1.133015
 C        -2.338406         1.194399         1.762610
 C        -1.346105         0.138198         2.217441
 C        -3.787274         1.699374         2.059393
 C        -4.355107         1.669378         0.463456
 O        -3.343784         1.204045        -0.379464
 C        -2.463420         0.375808         0.477729
 H         0.717858        -0.451820         0.345525
 H        -0.510356         2.497372         1.875919
 H        -1.494610         2.806939         0.396644
 H        -0.600841         0.369885         3.017643
 H        -1.714232        -0.856249         2.395286
 H        -4.380564         0.768857         2.433333
 H        -4.054949         2.662253         2.576922
 H        -5.188355         0.922272         0.381534
 H        -4.775974         2.648600         0.102355
 H        -2.779730        -0.634840         0.391307
