19
Iteration:  2533charge 0 multiplicity 1
 O        -0.031344        -0.048401        -0.252682
 C        -0.973169         0.564040         0.728755
 C        -1.170936         2.028922         1.109046
 C        -2.310229         1.227208         1.838034
 C        -1.146105         0.152847         2.277306
 C        -3.768534         1.883255         1.995669
 C        -4.544423         1.440949         0.516296
 O        -3.367531         1.092242        -0.386711
 C        -2.535755         0.375777         0.551007
 H         0.826345         0.309667         0.114114
 H        -0.614682         2.520360         1.832437
 H        -1.534569         2.644592         0.272867
 H        -0.387569         0.573949         3.036684
 H        -1.680676        -0.731182         2.517027
 H        -4.284311         1.495180         2.889153
 H        -3.742043         3.030507         2.091066
 H        -5.229866         0.728537         0.837042
 H        -5.173768         2.207794         0.063706
 H        -2.884619        -0.602279         0.507345
