19
Iteration:  3402
 O         0.095434        -0.052063        -0.007028
 C        -0.971450         0.610882         0.631493
 C        -1.320334         2.087576         1.072362
 C        -2.363351         1.225949         1.795142
 C        -1.294997         0.230528         2.186904
 C        -3.742266         1.692307         2.040373
 C        -4.345186         1.572433         0.555710
 O        -3.388404         1.089147        -0.373818
 C        -2.489650         0.338249         0.520164
 H        -0.244724        -0.425340        -0.839143
 H        -0.596885         2.625992         1.744473
 H        -1.726523         2.697763         0.224764
 H        -0.343074         0.672491         2.691316
 H        -1.666241        -0.832759         2.265376
 H        -4.118259         1.105802         2.887096
 H        -3.758752         2.776145         2.284685
 H        -5.190540         0.850708         0.568452
 H        -4.883056         2.485602         0.086595
 H        -2.928331        -0.684018         0.693422
