19
Iteration:  3825
 O         0.012080        -0.145807        -0.064786
 C        -0.990770         0.602717         0.658545
 C        -1.264847         2.177859         1.030165
 C        -2.335471         1.253034         1.769622
 C        -1.202430         0.325709         2.191116
 C        -3.783291         1.497466         1.996873
 C        -4.303424         1.729597         0.596624
 O        -3.490994         1.005117        -0.391915
 C        -2.503587         0.340589         0.468602
 H         0.811551        -0.022341         0.519741
 H        -0.628699         2.543123         1.889463
 H        -1.566338         3.037239         0.460398
 H        -0.524031         0.626478         3.007601
 H        -1.540053        -0.710662         2.550872
 H        -4.082733         0.579461         2.516995
 H        -4.142404         2.388026         2.559694
 H        -5.387072         1.514932         0.463877
 H        -4.320982         2.818967         0.458627
 H        -2.833008        -0.695344         0.463453
