19
Iteration:  2110
 O         0.139207         0.212116        -0.135462
 C        -1.010483         0.499730         0.636929
 C        -1.301007         1.890722         1.001533
 C        -2.375424         1.175958         1.834995
 C        -1.255123         0.175065         2.268971
 C        -3.842177         1.740649         1.939120
 C        -4.236273         1.888323         0.450117
 O        -3.437499         0.886119        -0.208332
 C        -2.532618         0.279912         0.616427
 H        -0.142530        -0.445323        -0.842063
 H        -0.429509         2.335329         1.427959
 H        -1.740078         2.670392         0.449770
 H        -0.474139         0.610673         2.991262
 H        -1.541054        -0.933207         2.433508
 H        -4.427306         0.972755         2.372221
 H        -4.029404         2.678467         2.547435
 H        -5.296319         1.619827         0.342874
 H        -4.196341         2.875891        -0.028288
 H        -2.786950        -0.801336         0.968361
