19
Iteration:   949
 O         0.140041        -0.038075         0.088670
 C        -0.923912         0.549698         0.695135
 C        -1.182877         2.057165         1.018715
 C        -2.362271         1.214701         1.723458
 C        -1.234168         0.116736         2.189719
 C        -3.883425         1.716401         1.979919
 C        -4.463054         1.619627         0.568437
 O        -3.325671         1.200515        -0.350347
 C        -2.587154         0.356550         0.451627
 H        -0.154204        -0.619082        -0.627328
 H        -0.434540         2.500807         1.702028
 H        -1.412256         2.645495         0.173949
 H        -0.569004         0.363247         3.037125
 H        -1.545475        -0.897183         2.220605
 H        -4.498224         1.104475         2.668446
 H        -4.075448         2.798091         2.311333
 H        -5.291203         0.900494         0.486087
 H        -4.702332         2.584120         0.210128
 H        -3.171233        -0.584005         0.620011
