19
Iteration:  1546charge 0 multiplicity 1
 O         0.227921         0.069665         0.066218
 C        -1.005694         0.506862         0.698976
 C        -1.284591         2.073171         1.075662
 C        -2.407138         1.044112         1.717646
 C        -1.333644         0.072659         2.099472
 C        -3.710350         1.598354         2.115066
 C        -4.228738         1.960509         0.552540
 O        -3.494277         1.075804        -0.379329
 C        -2.613049         0.341873         0.383824
 H         0.051235        -0.838069        -0.248122
 H        -0.821345         2.575889         1.926261
 H        -1.636144         2.875306         0.392591
 H        -0.674035         0.267936         2.922157
 H        -1.900893        -0.855289         2.222626
 H        -4.541876         0.984077         2.446084
 H        -3.634615         2.531814         2.660211
 H        -5.332735         1.741824         0.492848
 H        -3.985549         2.979736         0.140814
 H        -2.735926        -0.800129         0.470604
