19
Iteration:  1141
 O         0.090489         0.254356        -0.053391
 C        -0.927576         0.476237         0.741099
 C        -1.296245         1.984612         1.110138
 C        -2.372183         1.060167         1.768576
 C        -1.321044         0.068103         2.283960
 C        -3.800363         1.728293         1.950975
 C        -4.148659         1.977266         0.483292
 O        -3.492323         0.911118        -0.344482
 C        -2.579251         0.227136         0.486503
 H        -0.080802        -0.603025        -0.425320
 H        -0.590929         2.660867         1.763972
 H        -1.656807         2.576318         0.283119
 H        -0.512382         0.196895         2.989093
 H        -1.690344        -0.967510         2.234653
 H        -4.551783         1.242170         2.614506
 H        -3.742947         2.782895         2.177135
 H        -5.258441         1.998331         0.267629
 H        -3.802320         3.035878         0.138008
 H        -2.817683        -0.874873         0.567661
