19
Iteration:  1400charge 0 multiplicity 1
 O         0.149549        -0.067970         0.072577
 C        -1.012476         0.448851         0.702512
 C        -1.292103         1.932063         1.008837
 C        -2.415024         1.137605         1.737286
 C        -1.311597         0.156498         2.208448
 C        -3.719122         1.657881         2.066130
 C        -4.345806         1.780430         0.534783
 O        -3.406843         1.290739        -0.382776
 C        -2.543292         0.345543         0.343467
 H         0.773932         0.673507        -0.007040
 H        -0.682492         2.589649         1.647338
 H        -1.604720         2.538471         0.184699
 H        -0.528045         0.340212         2.988806
 H        -1.634939        -0.921518         2.381020
 H        -4.142182         0.802760         2.541087
 H        -3.784748         2.465246         2.816167
 H        -5.368578         1.265256         0.701666
 H        -4.577781         2.787257         0.192764
 H        -3.136324        -0.652338         0.430489
