19
Iteration:  4219
 O        -0.026850         0.025569        -0.123344
 C        -1.048401         0.597453         0.676324
 C        -1.241220         2.099410         1.070838
 C        -2.324513         1.281893         1.756476
 C        -1.381948         0.236034         2.292000
 C        -3.787752         1.588283         2.002634
 C        -4.183980         1.840102         0.511016
 O        -3.345002         0.875162        -0.349578
 C        -2.526765         0.207769         0.549412
 H         0.428835         0.799684        -0.456597
 H        -0.543501         2.599929         1.749008
 H        -1.635455         2.740553         0.218608
 H        -0.713885         0.367463         3.199684
 H        -1.729570        -0.750579         2.507483
 H        -4.202183         0.557740         2.200026
 H        -4.058325         2.334819         2.735647
 H        -5.214619         1.554719         0.212985
 H        -4.063282         2.880058         0.097193
 H        -2.861415        -0.756047         0.930681
