19
Iteration:  4563charge 0 multiplicity 1
 O        -0.020141         0.051988        -0.134602
 C        -1.004550         0.562393         0.724051
 C        -1.397096         2.040717         1.030001
 C        -2.352831         1.202072         1.776692
 C        -1.280993         0.227205         2.241102
 C        -3.835513         1.762277         2.021864
 C        -4.359949         1.488234         0.502792
 O        -3.224046         1.061854        -0.326549
 C        -2.431649         0.305355         0.478709
 H         0.787701         0.170363         0.395459
 H        -0.562776         2.452925         1.535986
 H        -1.706280         2.843319         0.290299
 H        -0.626955         0.568330         3.058729
 H        -1.542146        -0.849885         2.391126
 H        -4.154308         1.286829         2.950758
 H        -4.064972         2.787940         2.336304
 H        -5.242707         0.919223         0.331772
 H        -4.521772         2.493943         0.184062
 H        -2.983713        -0.597181         0.728231
