19
Iteration:   866charge 0 multiplicity 1
 O         0.132117         0.088481        -0.035225
 C        -0.959374         0.425197         0.709282
 C        -1.370836         1.973058         1.035754
 C        -2.425107         1.198738         1.804156
 C        -1.201692         0.138283         2.145646
 C        -3.854008         1.715039         1.900228
 C        -4.179091         1.915427         0.409775
 O        -3.492890         0.946385        -0.301586
 C        -2.576542         0.226071         0.694531
 H         0.751823         0.820894         0.103540
 H        -0.681693         2.434541         1.744073
 H        -1.642530         2.747979         0.215220
 H        -0.351833         0.481933         2.813652
 H        -1.379313        -0.982314         2.313775
 H        -4.594981         1.053866         2.319688
 H        -3.877319         2.694549         2.307413
 H        -5.295517         1.878663         0.342959
 H        -3.929086         3.005999         0.166643
 H        -2.909995        -0.849080         0.805792
