19
Iteration:  3140charge 0 multiplicity 1
 O         0.028021         0.037472        -0.208608
 C        -0.988264         0.532679         0.646707
 C        -1.362085         2.037698         1.189735
 C        -2.364250         1.145560         1.832715
 C        -1.197190         0.107694         2.217159
 C        -3.716825         1.916022         1.963126
 C        -4.420408         1.658172         0.485495
 O        -3.402536         0.946814        -0.340632
 C        -2.492663         0.320565         0.566958
 H         0.850959         0.468867         0.151581
 H        -0.707678         2.557912         1.873434
 H        -1.661312         2.684613         0.384249
 H        -0.531562         0.359861         3.009421
 H        -1.593464        -0.801048         2.612045
 H        -4.313808         1.435685         2.712637
 H        -3.423157         2.939931         2.068343
 H        -5.395614         0.990108         0.586144
 H        -4.539448         2.705513         0.015028
 H        -2.674734        -0.759879         0.678557
