19
Iteration:  4567
 O         0.001135         0.042186        -0.116247
 C        -1.013671         0.560395         0.707320
 C        -1.396111         2.073993         1.015936
 C        -2.341868         1.172388         1.771069
 C        -1.281760         0.216128         2.273169
 C        -3.825553         1.729179         2.011615
 C        -4.360743         1.497886         0.541128
 O        -3.218464         1.080319        -0.351012
 C        -2.479051         0.319192         0.454861
 H         0.818212         0.167412         0.421425
 H        -0.581007         2.588282         1.553474
 H        -1.802290         2.717274         0.307156
 H        -0.587580         0.661186         3.100732
 H        -1.647150        -0.774566         2.453202
 H        -4.149252         1.228376         2.943250
 H        -3.770634         2.824956         2.157548
 H        -5.294529         0.877078         0.407464
 H        -4.669358         2.523679         0.213259
 H        -2.929600        -0.647883         0.743536
