19
Iteration:  1721charge 0 multiplicity 1
 O         0.115790        -0.010341         0.111488
 C        -0.953047         0.564387         0.735343
 C        -1.323006         1.983781         1.114218
 C        -2.451873         1.028858         1.762296
 C        -1.262533         0.079597         2.088963
 C        -3.775242         1.661011         2.013978
 C        -4.282343         1.953693         0.581550
 O        -3.404513         1.138922        -0.446705
 C        -2.559606         0.287191         0.415156
 H         0.150477         0.157902        -0.872785
 H        -0.628765         2.483067         1.858091
 H        -1.747113         2.657201         0.413436
 H        -0.508250         0.615949         2.699187
 H        -1.296650        -1.078796         2.353816
 H        -4.519516         1.089326         2.544101
 H        -3.501978         2.465986         2.674033
 H        -5.280486         1.548920         0.697544
 H        -4.360978         2.991875         0.159018
 H        -2.872325        -0.735270         0.436429
