19
Iteration:  4154
 O         0.164828         0.139414         0.124378
 C        -0.972030         0.532840         0.695222
 C        -1.327300         1.994768         0.935941
 C        -2.392510         1.068009         1.730680
 C        -1.311613         0.168975         2.173288
 C        -3.773197         1.676546         2.057139
 C        -4.239375         1.872963         0.557679
 O        -3.504095         0.964670        -0.371252
 C        -2.540496         0.282740         0.483201
 H         0.276121         0.148204        -0.838757
 H        -0.686184         2.694626         1.457911
 H        -1.794086         2.311866        -0.038949
 H        -0.581294         0.528291         2.952386
 H        -1.393795        -0.869502         2.367919
 H        -4.435757         0.948163         2.563941
 H        -3.585907         2.625894         2.513369
 H        -5.289401         1.572971         0.575608
 H        -4.032280         2.927129         0.277582
 H        -2.849965        -0.759291         0.663236
