19
Iteration:   898charge 0 multiplicity 1
 O        -0.018292        -0.016927        -0.045238
 C        -0.972252         0.509021         0.752311
 C        -1.281564         1.968345         1.014683
 C        -2.435690         1.161550         1.742193
 C        -1.395595         0.299813         2.302721
 C        -3.776699         1.618198         2.013419
 C        -4.204475         1.781777         0.497401
 O        -3.343911         1.059765        -0.375478
 C        -2.420233         0.273593         0.518679
 H         0.103898         0.736463        -0.722022
 H        -0.630309         2.483201         1.699608
 H        -1.556025         2.604779         0.093783
 H        -0.641083         0.776896         2.966177
 H        -1.609682        -0.736732         2.639635
 H        -4.419441         0.955042         2.577968
 H        -3.793366         2.555089         2.538900
 H        -5.265750         1.400958         0.419070
 H        -4.245322         2.873248         0.253464
 H        -2.785638        -0.732574         0.305530
