19
Iteration:  1371charge 0 multiplicity 1
 O         0.066445        -0.123059        -0.095278
 C        -0.986637         0.516234         0.696026
 C        -1.129844         2.041129         1.083044
 C        -2.484991         1.165821         1.797483
 C        -1.276939         0.157387         2.186351
 C        -3.895226         1.657525         1.962155
 C        -4.391494         1.696111         0.573546
 O        -3.313071         1.233740        -0.335525
 C        -2.519469         0.420657         0.433946
 H         0.822214        -0.080279         0.477047
 H        -0.479744         2.456804         1.874170
 H        -1.400903         2.664238         0.144570
 H        -0.520766         0.476779         2.935593
 H        -1.528192        -0.871812         2.170627
 H        -4.481657         0.884822         2.691210
 H        -3.946290         2.557248         2.637303
 H        -5.307641         1.085922         0.561193
 H        -4.569064         2.698153         0.096190
 H        -2.904798        -0.539641         0.641438
