19
Iteration:  2151charge 0 multiplicity 1
 O         0.023428        -0.081695         0.092503
 C        -0.994563         0.607732         0.674467
 C        -1.372058         2.073338         0.930911
 C        -2.349727         1.129396         1.733962
 C        -1.225131         0.284184         2.194667
 C        -3.706683         1.628139         2.058461
 C        -4.300245         1.828760         0.581372
 O        -3.489781         0.993032        -0.320092
 C        -2.449948         0.263280         0.411109
 H         0.463415         0.374319        -0.636655
 H        -0.648212         2.722203         1.541716
 H        -1.939412         2.455595         0.087238
 H        -0.610891         0.860386         3.013999
 H        -1.213460        -0.807172         2.434555
 H        -4.268268         0.822468         2.485113
 H        -3.756451         2.489808         2.703999
 H        -5.302260         1.495744         0.499472
 H        -4.180831         2.921606         0.271798
 H        -2.783567        -0.744602         0.361284
