19
Iteration:    50
 O         0.121568        -0.099039         0.042212
 C        -0.982260         0.535500         0.724638
 C        -1.147940         2.023563         1.035279
 C        -2.437246         1.211647         1.705937
 C        -1.379204         0.355959         2.208648
 C        -3.688454         1.734356         2.042593
 C        -4.425467         1.551339         0.530448
 O        -3.355800         1.127073        -0.360993
 C        -2.579727         0.281697         0.430125
 H         0.098121         0.263676        -0.890021
 H        -0.531575         2.594212         1.805942
 H        -1.345214         2.691357         0.115529
 H        -0.565545         0.802183         2.879594
 H        -1.600332        -0.657174         2.745656
 H        -4.351903         1.256126         2.816596
 H        -3.724023         2.815566         2.310109
 H        -5.186445         0.723838         0.599974
 H        -4.913067         2.490890         0.161546
 H        -2.921499        -0.803635         0.560250
