19
Iteration:  3543
 O         0.057833        -0.005374         0.032950
 C        -1.007630         0.560388         0.639159
 C        -1.373421         2.120396         0.920085
 C        -2.369652         1.158292         1.788503
 C        -1.193680         0.260040         2.208443
 C        -3.773892         1.532724         2.021685
 C        -4.181573         1.867584         0.575552
 O        -3.509746         0.900351        -0.342414
 C        -2.475024         0.302897         0.557298
 H         0.185780         0.515626        -0.791129
 H        -0.468874         2.692521         1.338136
 H        -1.867152         2.586385         0.042741
 H        -0.646593         0.847281         2.907193
 H        -1.698648        -0.611291         2.582138
 H        -4.322717         0.615127         2.340369
 H        -3.967493         2.350018         2.756651
 H        -5.271416         1.800095         0.409774
 H        -4.045824         2.968550         0.253057
 H        -2.646053        -0.765225         0.724464
