19
Iteration:  3852charge 0 multiplicity 1
 O         0.127021         0.094051        -0.077730
 C        -0.956520         0.537379         0.670033
 C        -1.315671         1.987443         0.914138
 C        -2.414810         1.099442         1.795552
 C        -1.215476         0.227508         2.177806
 C        -3.841941         1.641761         2.029164
 C        -4.283606         1.863439         0.570301
 O        -3.468195         0.960269        -0.308656
 C        -2.510026         0.335388         0.542924
 H         0.662325        -0.556712         0.451890
 H        -0.710580         2.599339         1.558782
 H        -1.807239         2.650575         0.150824
 H        -0.600920         0.764229         2.974678
 H        -1.415414        -0.793707         2.455249
 H        -4.432510         0.821614         2.510928
 H        -3.956777         2.551763         2.626086
 H        -5.310409         1.486376         0.416128
 H        -4.079677         2.966389         0.271575
 H        -2.911149        -0.709805         0.497022
