19
Iteration:  3804charge 0 multiplicity 1
 O        -0.089164        -0.113000        -0.064203
 C        -0.937828         0.675958         0.760190
 C        -1.213953         2.079207         0.987180
 C        -2.392530         1.247110         1.725831
 C        -1.249595         0.243424         2.203826
 C        -3.842405         1.518572         2.079050
 C        -4.376521         1.704318         0.541213
 O        -3.363109         1.058675        -0.337177
 C        -2.414541         0.385948         0.480122
 H         0.804831         0.197041        -0.189782
 H        -0.520943         2.847470         1.443577
 H        -1.502279         2.463811         0.016147
 H        -0.465704         0.608252         2.958271
 H        -1.472931        -0.841676         2.563689
 H        -4.264557         0.600947         2.568478
 H        -3.906389         2.387890         2.757360
 H        -5.360054         1.184174         0.465648
 H        -4.606003         2.721747         0.073706
 H        -2.823641        -0.597538         0.570649
