19
Iteration:  3889charge 0 multiplicity 1
 O         0.154255         0.282748        -0.063419
 C        -1.004320         0.516295         0.629774
 C        -1.377372         1.884763         0.980147
 C        -2.453268         1.112219         1.774112
 C        -1.307090         0.223487         2.207254
 C        -3.744045         1.729386         2.043374
 C        -4.134705         1.890568         0.545133
 O        -3.419998         0.850284        -0.317806
 C        -2.591221         0.198470         0.573529
 H        -0.002989        -0.303008        -0.838893
 H        -0.719148         2.339393         1.795984
 H        -1.713003         2.572949         0.236423
 H        -0.761532         0.752150         2.930460
 H        -1.511438        -0.825572         2.618348
 H        -4.434468         1.157457         2.642409
 H        -3.659756         2.762951         2.469514
 H        -5.276446         1.801103         0.533173
 H        -4.128545         2.830653         0.005331
 H        -2.670924        -0.922893         0.802088
