19
Iteration:  4881charge 0 multiplicity 1
 O         0.097367        -0.043734        -0.038620
 C        -1.042457         0.562480         0.654819
 C        -1.332467         2.000782         1.043723
 C        -2.462559         1.105011         1.856303
 C        -1.210195         0.296204         2.321814
 C        -3.855840         1.647655         2.026856
 C        -4.325888         1.636186         0.530979
 O        -3.278537         1.179771        -0.432642
 C        -2.487867         0.286784         0.477329
 H         0.043927         0.288391        -0.969618
 H        -0.474988         2.507591         1.662846
 H        -1.737907         2.845095         0.500537
 H        -0.505755         1.069655         2.885122
 H        -1.230807        -0.712358         2.784805
 H        -4.510141         0.918124         2.581437
 H        -3.886201         2.670740         2.353093
 H        -5.154799         0.909404         0.380282
 H        -4.595977         2.588836         0.107153
 H        -2.913853        -0.728645         0.449694
