19
Iteration:   465
 O         0.110368        -0.021165         0.061861
 C        -1.033857         0.470808         0.742200
 C        -1.281187         1.951861         0.971093
 C        -2.360827         1.150792         1.776535
 C        -1.178771         0.253138         2.225552
 C        -3.874089         1.651965         2.085583
 C        -4.410413         1.776679         0.466951
 O        -3.268305         1.190604        -0.397781
 C        -2.549961         0.335420         0.461740
 H        -0.077386        -0.677283        -0.679882
 H        -0.504908         2.504225         1.572243
 H        -1.608999         2.616628         0.211902
 H        -0.529996         0.757564         2.970675
 H        -1.456836        -0.762014         2.443875
 H        -4.539260         0.828605         2.522009
 H        -4.090268         2.597216         2.622839
 H        -5.417697         1.219142         0.413908
 H        -4.534900         2.805229         0.190143
 H        -2.910711        -0.724749         0.490047
