19
Iteration:  1095charge 0 multiplicity 1
 O         0.193771         0.060621         0.083336
 C        -1.000388         0.499807         0.734761
 C        -1.270317         1.993321         0.957197
 C        -2.363855         1.120040         1.754139
 C        -1.216091         0.152979         2.176988
 C        -3.880229         1.609378         1.954699
 C        -4.250660         1.869209         0.568175
 O        -3.500017         1.116583        -0.372758
 C        -2.584702         0.332144         0.477011
 H        -0.051707        -0.876068        -0.157057
 H        -0.517318         2.537565         1.602633
 H        -1.501888         2.518360         0.015370
 H        -0.551725         0.651157         2.815934
 H        -1.510654        -0.849076         2.486135
 H        -4.388556         0.710348         2.401448
 H        -3.979005         2.452746         2.647890
 H        -5.349653         1.826462         0.413691
 H        -4.010508         2.974340         0.408565
 H        -2.919826        -0.740262         0.656316
