19
Iteration:  4444charge 0 multiplicity 1
 O         0.130523         0.065066        -0.010389
 C        -0.912162         0.600720         0.692548
 C        -1.341057         2.068208         0.964866
 C        -2.405443         1.125396         1.728042
 C        -1.314725         0.313420         2.267985
 C        -3.749425         1.584150         2.020176
 C        -4.229506         1.811761         0.481238
 O        -3.542610         0.891563        -0.292891
 C        -2.532822         0.195369         0.489530
 H         0.836397         0.649641        -0.364451
 H        -0.748941         2.576771         1.701490
 H        -1.461407         2.761397         0.014742
 H        -0.575618         0.605332         3.075207
 H        -1.873987        -0.680511         2.402076
 H        -4.415661         0.975510         2.668823
 H        -3.868948         2.539686         2.532130
 H        -5.392775         1.845223         0.187650
 H        -3.812911         2.862648         0.471706
 H        -2.753344        -0.884367         0.566357
