19
Iteration:   784charge 0 multiplicity 1
 O        -0.030025        -0.042034        -0.011350
 C        -1.053096         0.532019         0.688767
 C        -1.339472         2.034073         1.028158
 C        -2.370785         1.231860         1.800183
 C        -1.125298         0.223340         2.185651
 C        -3.845238         1.633361         1.956382
 C        -4.265362         1.685530         0.448750
 O        -3.273135         1.099935        -0.337832
 C        -2.621228         0.353442         0.566890
 H         0.708149        -0.092695         0.699527
 H        -0.538188         2.682217         1.450319
 H        -1.743314         2.597505         0.200232
 H        -0.318743         0.523027         2.792238
 H        -1.371929        -0.808473         2.434663
 H        -4.447186         0.920265         2.583362
 H        -4.094484         2.591446         2.490095
 H        -5.199092         1.209547         0.063058
 H        -4.230792         2.761377         0.136334
 H        -2.947963        -0.676058         0.772322
