19
Iteration:  4590
 O         0.083351        -0.000308        -0.028011
 C        -0.895625         0.567471         0.773576
 C        -1.301425         1.976337         0.995742
 C        -2.419165         1.101896         1.727321
 C        -1.265413         0.271977         2.249588
 C        -3.784096         1.797193         2.012499
 C        -4.384952         1.538348         0.532520
 O        -3.476638         1.160715        -0.393031
 C        -2.436102         0.319581         0.422914
 H         0.941036         0.310449         0.341360
 H        -0.656574         2.509714         1.764420
 H        -1.472522         2.606270         0.153141
 H        -0.578466         0.852582         2.940386
 H        -1.386829        -0.796543         2.472306
 H        -4.289178         0.988839         2.638026
 H        -3.846030         2.745124         2.616614
 H        -5.117990         0.690496         0.768336
 H        -5.108845         2.340111         0.203398
 H        -2.830708        -0.726286         0.395582
