19
Iteration:  1205charge 0 multiplicity 1
 O         0.016693         0.022699        -0.114582
 C        -0.975300         0.573794         0.761402
 C        -1.297844         1.997176         1.029029
 C        -2.387807         1.097819         1.799096
 C        -1.382823         0.179347         2.286166
 C        -3.808178         1.601771         2.046590
 C        -4.121044         1.870823         0.510598
 O        -3.343766         1.113999        -0.379285
 C        -2.500813         0.360748         0.444899
 H        -0.161731        -0.912520        -0.216633
 H        -0.693321         2.618623         1.817072
 H        -1.782869         2.502913         0.231959
 H        -0.687480         0.597198         2.980942
 H        -1.660649        -0.850363         2.466546
 H        -4.435481         0.674551         2.454366
 H        -4.003190         2.464355         2.781175
 H        -5.072084         1.331771         0.400414
 H        -4.209721         2.930494         0.152125
 H        -2.845139        -0.754909         0.431873
