19
Iteration:   844
 O         0.080578         0.099215        -0.038166
 C        -0.996516         0.581967         0.643585
 C        -1.320669         2.028451         1.079479
 C        -2.419766         1.064648         1.741827
 C        -1.281258         0.187687         2.277267
 C        -3.784703         1.789138         1.993675
 C        -4.099250         1.952192         0.450659
 O        -3.597836         0.774587        -0.329398
 C        -2.513444         0.211281         0.496601
 H         0.800346         0.440401         0.568952
 H        -0.558203         2.572239         1.634649
 H        -1.780915         2.667661         0.242246
 H        -0.560203         0.571855         3.072514
 H        -1.508434        -0.913959         2.481458
 H        -4.490823         1.100433         2.429796
 H        -3.604931         2.654257         2.599994
 H        -5.188386         2.008921         0.227377
 H        -3.716229         2.981530         0.207013
 H        -2.618594        -0.903566         0.350883
