19
Iteration:  1801
 O         0.051416         0.043855        -0.273278
 C        -0.973058         0.515362         0.702650
 C        -1.337126         2.016715         1.222414
 C        -2.475442         1.057466         1.803649
 C        -1.226263         0.054683         2.202959
 C        -3.929860         1.725769         2.047918
 C        -4.183785         1.992480         0.489337
 O        -3.304113         0.978830        -0.349616
 C        -2.557747         0.328460         0.513866
 H         0.810587        -0.086724         0.363603
 H        -0.792365         2.593490         1.924621
 H        -1.740827         2.701176         0.427927
 H        -0.486784         0.451704         2.976283
 H        -1.447068        -0.983791         2.495423
 H        -4.692325         0.983280         2.401961
 H        -3.897998         2.589429         2.695859
 H        -5.250309         1.724514         0.243641
 H        -3.880296         2.986510         0.020899
 H        -2.858818        -0.660398         0.746372
