19
Iteration:  2614charge 0 multiplicity 1
 O         0.110475        -0.104020        -0.038769
 C        -0.950212         0.563518         0.642817
 C        -1.242006         2.040644         0.918465
 C        -2.381599         1.205694         1.688582
 C        -1.176292         0.278154         2.216357
 C        -3.863725         1.698596         2.076405
 C        -4.506122         1.684243         0.573169
 O        -3.464045         1.121364        -0.243110
 C        -2.481141         0.235735         0.465531
 H         0.825868         0.544295        -0.046061
 H        -0.348467         2.495053         1.589121
 H        -1.569521         2.708637         0.092547
 H        -0.418021         0.550199         2.857528
 H        -1.344779        -0.782912         2.532819
 H        -4.294672         1.037878         2.917615
 H        -3.770936         2.757336         2.388100
 H        -5.429757         0.973898         0.500279
 H        -4.453759         2.716628         0.145183
 H        -2.810302        -0.803520         0.690293
