19
Iteration:  2795
 O         0.094294        -0.115007        -0.000652
 C        -0.928882         0.578722         0.697927
 C        -1.271700         2.061933         0.932201
 C        -2.397229         1.274357         1.771047
 C        -1.245564         0.226213         2.199102
 C        -3.749385         1.664077         2.081142
 C        -4.508131         1.592669         0.658601
 O        -3.347603         1.075392        -0.400266
 C        -2.516413         0.433784         0.492443
 H        -0.097489        -0.130012        -0.979767
 H        -0.602378         2.749193         1.412985
 H        -1.546771         2.635957         0.069440
 H        -0.514598         0.770738         2.831390
 H        -1.536727        -0.725940         2.583217
 H        -4.199017         1.007605         2.732295
 H        -3.646699         2.666141         2.502010
 H        -5.247406         0.734435         0.423332
 H        -4.911022         2.535920         0.326406
 H        -2.710565        -0.633950         0.663109
