19
Iteration:  3886
 O         0.135346         0.300762        -0.055045
 C        -1.004777         0.484409         0.666344
 C        -1.387730         1.896792         0.967876
 C        -2.446626         1.111871         1.753636
 C        -1.296937         0.204405         2.208087
 C        -3.715943         1.732615         2.044889
 C        -4.155770         1.900305         0.556476
 O        -3.409824         0.844812        -0.322055
 C        -2.582598         0.209080         0.556043
 H         0.099365        -0.369784        -0.779461
 H        -0.806436         2.401053         1.764378
 H        -1.818647         2.534018         0.170217
 H        -0.698562         0.811183         2.911651
 H        -1.579469        -0.798489         2.590496
 H        -4.366859         1.096003         2.668390
 H        -3.610147         2.720893         2.550449
 H        -5.300570         1.741409         0.461333
 H        -4.080469         2.931369        -0.011667
 H        -2.835676        -0.914347         0.803277
