19
Iteration:  4805
 O         0.166287         0.249498        -0.013861
 C        -0.939074         0.497738         0.690622
 C        -1.254807         1.906648         1.070921
 C        -2.449381         1.112458         1.727515
 C        -1.252657         0.201506         2.342186
 C        -3.825194         1.679369         1.978735
 C        -4.315727         1.862471         0.549479
 O        -3.565845         0.919856        -0.363691
 C        -2.465077         0.296439         0.399990
 H         0.480335        -0.678400         0.012169
 H        -0.520827         2.545055         1.714865
 H        -1.595409         2.450389         0.197384
 H        -0.543986         0.871948         2.942972
 H        -1.371196        -0.799268         2.488772
 H        -4.619431         0.939798         2.406084
 H        -3.738960         2.644064         2.452832
 H        -5.397673         1.659351         0.430085
 H        -4.017650         2.747742         0.004231
 H        -2.741343        -0.809234         0.414174
