19
Iteration:  3238charge 0 multiplicity 1
 O        -0.051330        -0.205810        -0.079421
 C        -0.986644         0.601420         0.649583
 C        -1.288586         2.124272         1.059568
 C        -2.361740         1.238580         1.777437
 C        -1.171332         0.361137         2.225182
 C        -3.805099         1.556885         2.008109
 C        -4.344800         1.617718         0.530897
 O        -3.373020         1.135964        -0.376227
 C        -2.504739         0.360049         0.500292
 H         0.803965         0.249609         0.111200
 H        -0.484711         2.491219         1.681294
 H        -1.481827         2.733341         0.158978
 H        -0.457234         0.894446         2.926994
 H        -1.430874        -0.687359         2.697874
 H        -4.258677         0.692541         2.484439
 H        -3.910245         2.482738         2.609699
 H        -5.214355         0.941174         0.813728
 H        -4.813167         2.680848         0.289266
 H        -2.889948        -0.725903         0.629579
