19
Iteration:    69charge 0 multiplicity 1
 O         0.091653         0.026692         0.017269
 C        -0.960104         0.484485         0.789901
 C        -1.304805         1.946570         0.997634
 C        -2.358865         1.182402         1.706410
 C        -1.313009         0.225062         2.377000
 C        -3.711977         1.860872         1.963200
 C        -4.384298         1.538493         0.625801
 O        -3.400460         1.150298        -0.474060
 C        -2.456500         0.349772         0.430541
 H        -0.322199        -0.352245        -0.762249
 H        -0.491661         2.493733         1.548008
 H        -1.567238         2.495610         0.040438
 H        -0.689621         0.700334         3.153790
 H        -1.717566        -0.852190         2.533388
 H        -4.225875         1.277288         2.685186
 H        -3.625257         2.934549         2.349918
 H        -5.044397         0.655186         0.656607
 H        -4.919577         2.270213         0.136603
 H        -3.050573        -0.541931         0.418207
