19
Iteration:   195
 O         0.175907        -0.036545        -0.020789
 C        -0.967171         0.555260         0.757315
 C        -1.301568         2.069930         1.027569
 C        -2.430195         1.094892         1.743832
 C        -1.216817         0.253061         2.242329
 C        -3.872840         1.682169         1.971924
 C        -4.259501         1.913508         0.484678
 O        -3.456254         0.988331        -0.323990
 C        -2.503385         0.263396         0.508278
 H        -0.295928        -0.600185        -0.606237
 H        -0.668960         2.494089         1.785202
 H        -1.656217         2.613933         0.194033
 H        -0.535949         0.719156         2.969699
 H        -1.407510        -0.750597         2.577504
 H        -4.570151         0.896649         2.404044
 H        -3.898651         2.532379         2.634016
 H        -5.306166         1.621544         0.327380
 H        -4.109378         2.966472         0.046377
 H        -2.918965        -0.752372         0.491629
