19
Iteration:   914
 O         0.015471        -0.108945        -0.019010
 C        -0.971435         0.551246         0.754627
 C        -1.307992         2.100143         1.086075
 C        -2.380704         1.174032         1.691448
 C        -1.251016         0.264874         2.293848
 C        -3.785146         1.634621         1.994296
 C        -4.335226         1.705248         0.545212
 O        -3.260901         1.135128        -0.401818
 C        -2.569628         0.272070         0.430574
 H        -0.019977         0.094198        -0.964836
 H        -0.621852         2.584465         1.840162
 H        -1.549636         2.780846         0.305727
 H        -0.696408         0.704375         3.134604
 H        -1.683380        -0.779698         2.562180
 H        -4.295191         0.806218         2.565096
 H        -3.879831         2.651536         2.474719
 H        -5.297192         1.244457         0.353400
 H        -4.432647         2.743611         0.195601
 H        -2.854156        -0.720968         0.847356
