19
Iteration:  2319charge 0 multiplicity 1
 O         0.018850        -0.109233         0.041509
 C        -0.997391         0.568931         0.703794
 C        -1.140979         2.049138         0.904047
 C        -2.362760         1.224286         1.724769
 C        -1.202628         0.299198         2.141411
 C        -3.799114         1.665083         2.051370
 C        -4.416564         1.556756         0.644371
 O        -3.451136         1.194612        -0.335731
 C        -2.554569         0.341207         0.440017
 H         0.938741         0.153597         0.266206
 H        -0.275308         2.512155         1.352776
 H        -1.498748         2.721639         0.078579
 H        -0.480213         0.660501         2.924713
 H        -1.421132        -0.864938         2.378499
 H        -4.255272         0.882492         2.653817
 H        -3.952224         2.597773         2.574629
 H        -5.191132         0.804368         0.576348
 H        -5.002531         2.371397         0.274831
 H        -2.741442        -0.697779         0.443918
