19
Iteration:  2900
 O         0.084048        -0.099155        -0.065043
 C        -0.951573         0.549628         0.693451
 C        -1.301495         2.039391         0.972435
 C        -2.391330         1.195042         1.773075
 C        -1.212261         0.222419         2.223046
 C        -3.748403         1.740446         2.033403
 C        -4.396750         1.703402         0.603385
 O        -3.480162         1.029950        -0.350939
 C        -2.490528         0.374982         0.470484
 H         0.808299         0.541081        -0.225040
 H        -0.685883         2.629450         1.659458
 H        -1.802900         2.466189         0.094777
 H        -0.302375         0.558745         2.857113
 H        -1.436252        -0.826081         2.452557
 H        -4.276300         0.986913         2.721358
 H        -3.799797         2.688842         2.621716
 H        -5.296515         1.057455         0.682334
 H        -4.519781         2.674674         0.091521
 H        -2.923438        -0.620707         0.600643
