19
Iteration:  4724charge 0 multiplicity 1
 O         0.114900         0.122767        -0.110973
 C        -0.921141         0.538531         0.729925
 C        -1.328336         2.045082         1.110841
 C        -2.405055         1.233043         1.703311
 C        -1.343330         0.282861         2.294460
 C        -3.819558         1.586452         1.962267
 C        -4.301166         1.848501         0.557644
 O        -3.426896         0.913140        -0.366657
 C        -2.424984         0.262597         0.501359
 H        -0.047577        -0.798297        -0.466129
 H        -0.588124         2.417104         1.816673
 H        -1.395250         2.815519         0.277418
 H        -0.553617         0.525764         2.901899
 H        -1.692769        -0.657566         2.794918
 H        -4.421998         0.764275         2.284008
 H        -4.051951         2.411757         2.708907
 H        -5.300484         1.338234         0.466747
 H        -4.304827         2.843615         0.133583
 H        -2.603158        -0.835756         0.538234
