19
Iteration:  1501charge 0 multiplicity 1
 O         0.029280         0.172366        -0.207894
 C        -0.949847         0.488093         0.697775
 C        -1.371633         1.943084         1.072825
 C        -2.434656         1.095057         1.789245
 C        -1.352038         0.117747         2.394138
 C        -3.819894         1.531563         1.986279
 C        -4.146629         2.066472         0.521553
 O        -3.288781         1.098969        -0.366498
 C        -2.609962         0.234606         0.506025
 H         0.218459        -0.796546        -0.064823
 H        -0.607196         2.393389         1.693366
 H        -1.535769         2.641239         0.201110
 H        -0.649268         0.432162         3.219300
 H        -1.585037        -0.951793         2.447256
 H        -4.292522         0.597184         2.329811
 H        -3.823375         2.367330         2.706199
 H        -5.179010         1.999039         0.005658
 H        -3.718797         3.113574         0.459918
 H        -2.939264        -0.889506         0.707045
