19
Iteration:  1960charge 0 multiplicity 1
 O         0.038257         0.158520        -0.162643
 C        -1.052909         0.453922         0.653812
 C        -1.215791         1.953147         1.129340
 C        -2.389235         1.243876         1.809562
 C        -1.333607         0.160158         2.165492
 C        -3.695339         1.773161         1.987628
 C        -4.337755         1.670924         0.528200
 O        -3.314335         1.079320        -0.339957
 C        -2.612148         0.270796         0.586327
 H         0.574968        -0.588369         0.198337
 H        -0.476041         2.232876         1.943569
 H        -1.381747         2.722444         0.314653
 H        -0.485612         0.355536         2.741506
 H        -1.678466        -0.888290         2.330942
 H        -4.346180         1.217800         2.703057
 H        -3.759973         2.851967         2.319245
 H        -5.199464         0.953224         0.350312
 H        -4.609301         2.651236         0.046857
 H        -3.057305        -0.658892         0.897555
