19
Iteration:   714
 O         0.095005         0.000771         0.006038
 C        -1.025021         0.452358         0.711830
 C        -1.143481         1.940968         1.048935
 C        -2.384667         1.346833         1.808856
 C        -1.292453         0.054576         2.124667
 C        -3.831407         1.932527         1.924225
 C        -4.375195         1.488994         0.480843
 O        -3.322743         1.086131        -0.364220
 C        -2.617528         0.402339         0.555748
 H         0.660224         0.852385        -0.008853
 H        -0.453667         2.434216         1.736102
 H        -1.339193         2.715173         0.270358
 H        -0.600820         0.314164         3.000196
 H        -1.606873        -0.988179         2.363324
 H        -4.288915         1.479443         2.824189
 H        -4.066723         2.958861         2.168034
 H        -4.978694         0.689711         0.856975
 H        -5.000407         2.264307         0.064717
 H        -3.118522        -0.578205         0.724444
