19
Iteration:  4186charge 0 multiplicity 1
 O         0.172497         0.034932        -0.027551
 C        -0.968310         0.507956         0.629738
 C        -1.418434         1.967589         1.046208
 C        -2.443438         1.001208         1.819423
 C        -1.147254         0.259848         2.276036
 C        -3.922945         1.716498         2.037732
 C        -4.193806         2.000070         0.518761
 O        -3.435328         0.940767        -0.383554
 C        -2.552595         0.193351         0.531208
 H         0.529586         0.696108        -0.673973
 H        -0.762993         2.662703         1.563361
 H        -1.905538         2.497342         0.161453
 H        -0.496951         1.018578         2.760993
 H        -1.143868        -0.755364         2.473967
 H        -4.738125         1.083344         2.474004
 H        -3.898429         2.476568         2.789100
 H        -5.241008         1.748044         0.272583
 H        -3.974738         2.992655         0.047604
 H        -2.878206        -0.845703         0.539533
