19
Iteration:   220
 O         0.091347         0.127119        -0.033056
 C        -1.012851         0.605235         0.677089
 C        -1.247256         2.074162         1.032907
 C        -2.370630         1.184191         1.742007
 C        -1.442202         0.171740         2.293031
 C        -3.757687         1.678647         1.996241
 C        -4.073773         1.859433         0.550024
 O        -3.524095         0.813790        -0.396547
 C        -2.505029         0.277553         0.503936
 H        -0.002999        -0.831883        -0.139378
 H        -0.601472         2.604162         1.675606
 H        -1.600226         2.566184         0.145732
 H        -0.769457         0.466657         3.038824
 H        -1.911921        -0.774556         2.442202
 H        -4.330157         0.901618         2.489745
 H        -3.904306         2.691921         2.475536
 H        -5.158859         2.023670         0.376718
 H        -3.547979         2.799022         0.265696
 H        -2.814076        -0.756403         0.692665
