19
Iteration:  4257charge 0 multiplicity 1
 O        -0.015689         0.026749        -0.119842
 C        -0.952206         0.519385         0.805688
 C        -1.252476         2.043168         1.059483
 C        -2.441035         1.155628         1.719384
 C        -1.101926         0.155090         2.274728
 C        -3.841421         1.734702         1.943291
 C        -4.463177         1.735690         0.485655
 O        -3.323462         1.073014        -0.356903
 C        -2.482237         0.243443         0.518094
 H         0.905283         0.217530         0.219043
 H        -0.700393         2.616933         1.818560
 H        -1.491800         2.733116         0.278717
 H        -0.571271         0.755324         2.909332
 H        -1.474975        -0.873662         2.413600
 H        -4.404158         1.100988         2.582385
 H        -3.931244         2.681239         2.523951
 H        -5.399107         1.157430         0.585925
 H        -4.680631         2.730926         0.087463
 H        -2.888740        -0.806881         0.660557
