19
Iteration:   250charge 0 multiplicity 1
 O         0.139542         0.218554        -0.095958
 C        -0.982707         0.392537         0.704848
 C        -1.312668         1.849776         1.132907
 C        -2.435434         1.121746         1.779142
 C        -1.195906         0.171773         2.210792
 C        -3.883896         1.814220         1.897038
 C        -4.222122         1.945225         0.414654
 O        -3.470928         0.946932        -0.291833
 C        -2.541737         0.243448         0.649794
 H         0.420020        -0.716265        -0.077983
 H        -0.690639         2.458318         1.762172
 H        -1.560649         2.367062         0.240254
 H        -0.475572         0.768201         2.743525
 H        -1.512419        -0.788786         2.582148
 H        -4.469202         0.981719         2.332778
 H        -3.991361         2.762289         2.359664
 H        -5.285431         1.884848         0.193545
 H        -3.839033         2.926055        -0.024883
 H        -2.879437        -0.797251         0.760631
