19
Iteration:   542charge 0 multiplicity 1
 O         0.122739         0.084071        -0.063377
 C        -1.026504         0.542001         0.664957
 C        -1.260078         1.962338         1.143837
 C        -2.422091         1.189020         1.753282
 C        -1.275904         0.114305         2.220809
 C        -3.794026         1.818787         1.951625
 C        -4.218230         1.941394         0.406994
 O        -3.499757         0.843189        -0.319839
 C        -2.555360         0.211905         0.583272
 H         0.821543         0.695664         0.161143
 H        -0.481275         2.273764         1.886059
 H        -1.546322         2.671471         0.349411
 H        -0.534316         0.572254         2.825936
 H        -1.569109        -0.910715         2.264748
 H        -4.501092         1.016983         2.369360
 H        -3.910764         2.680355         2.652816
 H        -5.339795         1.705861         0.307747
 H        -3.995873         2.917704        -0.018080
 H        -2.767864        -0.867740         0.767506
