19
Iteration:  3480
 O         0.054102        -0.036181         0.036179
 C        -0.956170         0.540270         0.758168
 C        -1.338033         2.082336         1.041334
 C        -2.379782         1.150016         1.723058
 C        -1.207571         0.206479         2.102361
 C        -3.680492         1.861296         1.986907
 C        -4.381686         1.433985         0.609141
 O        -3.401298         1.150304        -0.332282
 C        -2.517508         0.346231         0.459510
 H        -0.051614         0.160981        -0.900981
 H        -0.626795         2.579539         1.743826
 H        -1.622324         2.700270         0.200916
 H        -0.550894         0.582435         3.052240
 H        -1.562634        -0.834962         2.296822
 H        -4.342506         1.575011         2.806469
 H        -3.540501         2.938921         2.134641
 H        -5.028250         0.514409         0.712999
 H        -5.166162         2.155810         0.286231
 H        -2.890337        -0.686673         0.378538
