19
Iteration:  1974charge 0 multiplicity 1
 O         0.076709         0.072445        -0.096611
 C        -0.988888         0.601569         0.675494
 C        -1.240679         2.003757         1.087824
 C        -2.366816         1.119350         1.788019
 C        -1.202544         0.064195         2.182716
 C        -3.804411         1.839933         2.044025
 C        -4.359816         1.715211         0.483646
 O        -3.413012         1.035113        -0.352084
 C        -2.548200         0.350675         0.509766
 H         0.076399        -0.863385         0.191254
 H        -0.455894         2.462479         1.705331
 H        -1.597498         2.806606         0.354566
 H        -0.526427         0.362234         3.082501
 H        -1.537960        -1.028260         2.263299
 H        -4.406178         1.206490         2.734016
 H        -3.694603         2.824194         2.436643
 H        -5.290630         1.190745         0.713140
 H        -4.626867         2.693129         0.032945
 H        -2.898140        -0.746987         0.535666
