19
Iteration:  2403
 O        -0.051943         0.134627        -0.261979
 C        -1.049664         0.528324         0.645771
 C        -1.293885         1.979129         1.089397
 C        -2.373877         1.163641         1.801651
 C        -1.176952         0.214874         2.324670
 C        -3.787888         1.786532         1.926314
 C        -4.223772         1.832086         0.516495
 O        -3.421548         0.839302        -0.302821
 C        -2.535371         0.231854         0.632158
 H         0.723776         0.629552         0.037033
 H        -0.604901         2.408025         1.865773
 H        -1.583220         2.618219         0.183202
 H        -0.438014         0.636395         2.966746
 H        -1.434067        -0.741744         2.584804
 H        -4.408028         1.022471         2.387420
 H        -3.864364         2.722616         2.570769
 H        -5.206522         1.331464         0.501351
 H        -3.999171         2.803705        -0.013202
 H        -2.799123        -0.899843         0.842678
