19
Iteration:  1833charge 0 multiplicity 1
 O         0.110718         0.146401        -0.003033
 C        -1.021887         0.542563         0.671634
 C        -1.219385         1.947599         1.062154
 C        -2.418624         1.030526         1.764604
 C        -1.305633         0.043466         2.180680
 C        -3.746698         1.664350         2.006341
 C        -4.261341         1.843020         0.561222
 O        -3.425503         1.114228        -0.343880
 C        -2.615845         0.391917         0.420297
 H         0.364517        -0.707327         0.421917
 H        -0.584807         2.526116         1.695713
 H        -1.643218         2.498641         0.178422
 H        -0.534661         0.588760         2.840554
 H        -1.528862        -1.064432         2.383904
 H        -4.462739         1.075547         2.609380
 H        -3.509462         2.597631         2.454402
 H        -5.300557         1.474723         0.417856
 H        -4.204286         2.872452         0.109422
 H        -2.965104        -0.629038         0.568078
