19
Iteration:   829
 O         0.085736         0.085621        -0.127123
 C        -0.950104         0.603122         0.747429
 C        -1.349306         2.054468         1.018692
 C        -2.404172         1.102232         1.744422
 C        -1.416839         0.242626         2.375487
 C        -3.700200         1.644480         1.963957
 C        -4.109278         1.901012         0.514288
 O        -3.640566         0.858500        -0.370938
 C        -2.410209         0.187759         0.456499
 H         1.014652        -0.103544         0.228367
 H        -0.831339         2.539808         1.888153
 H        -1.521898         2.745247         0.265785
 H        -0.800153         0.679532         3.133521
 H        -1.678930        -0.729957         2.608734
 H        -4.393172         1.149384         2.654281
 H        -3.711587         2.716374         2.343689
 H        -5.206567         2.065125         0.400406
 H        -3.629021         2.749768         0.044075
 H        -2.771606        -0.798887         0.678668
