19
Iteration:  3256
 O        -0.062168        -0.023519        -0.156230
 C        -0.974984         0.550836         0.748580
 C        -1.301832         2.047906         0.903376
 C        -2.352318         1.195134         1.757325
 C        -1.289516         0.267955         2.265706
 C        -3.778619         1.681834         2.094436
 C        -4.366730         1.666323         0.531401
 O        -3.273814         1.028696        -0.311755
 C        -2.472376         0.332115         0.534647
 H         0.859942         0.249635         0.048314
 H        -0.706857         2.721571         1.563578
 H        -1.811616         2.615985         0.125487
 H        -0.568292         0.538006         2.985427
 H        -1.672752        -0.747482         2.443239
 H        -4.240102         0.842027         2.625883
 H        -4.012700         2.639517         2.555789
 H        -5.288484         1.116192         0.375837
 H        -4.386829         2.649523         0.180597
 H        -2.837016        -0.657601         0.689006
