19
Iteration:  3575charge 0 multiplicity 1
 O         0.130959         0.143609        -0.065530
 C        -0.978895         0.521597         0.717842
 C        -1.454469         1.995715         1.067181
 C        -2.432523         1.066358         1.753284
 C        -1.028886         0.205016         2.174403
 C        -3.860398         1.727413         1.965408
 C        -4.228260         1.945244         0.519776
 O        -3.501101         0.862845        -0.328778
 C        -2.512961         0.153018         0.600125
 H        -0.199898         0.242247        -0.958429
 H        -0.748651         2.662353         1.684877
 H        -1.828495         2.697102         0.294382
 H        -0.520340         0.746049         2.907102
 H        -1.248054        -0.680162         2.774105
 H        -4.583429         1.219032         2.647895
 H        -3.653551         2.739541         2.422738
 H        -5.333142         1.893659         0.281739
 H        -3.638300         2.851890         0.080840
 H        -2.845073        -0.902393         0.734673
