19
Iteration:  2576
 O        -0.038590         0.000906        -0.107541
 C        -1.047132         0.491047         0.661844
 C        -1.262075         2.086375         1.017566
 C        -2.344996         1.257562         1.745575
 C        -1.332503         0.190987         2.272134
 C        -3.618524         1.882815         2.098736
 C        -4.384608         1.433407         0.572453
 O        -3.354820         1.093921        -0.379007
 C        -2.501211         0.285350         0.458542
 H         0.674050         0.670307        -0.266689
 H        -0.486754         2.344875         1.657115
 H        -1.490835         2.897545         0.311353
 H        -0.483047         0.526242         3.080557
 H        -1.748244        -0.812092         2.487826
 H        -4.177504         1.459638         2.920623
 H        -3.590659         2.966641         2.402447
 H        -4.963008         0.532180         0.701652
 H        -5.134409         2.062868         0.070495
 H        -2.892860        -0.738749         0.625165
