19
Iteration:  2278
 O        -0.006618         0.013486        -0.200314
 C        -1.008523         0.531297         0.699329
 C        -1.226236         2.020777         1.064603
 C        -2.348147         1.197435         1.785977
 C        -1.285760         0.255934         2.281508
 C        -3.751687         1.831844         2.062334
 C        -4.374962         1.542047         0.539043
 O        -3.402148         1.077314        -0.379023
 C        -2.462968         0.294534         0.495480
 H         0.784311        -0.065277         0.384296
 H        -0.426190         2.464143         1.660353
 H        -1.458490         2.651648         0.211051
 H        -0.594027         0.710751         2.999159
 H        -1.706055        -0.785023         2.442968
 H        -4.432815         1.259827         2.797006
 H        -3.634406         2.881820         2.322483
 H        -5.116143         0.702980         0.808593
 H        -4.936285         2.343569         0.036165
 H        -2.919858        -0.743072         0.592758
