19
Iteration:  3899
 O         0.197614         0.197839        -0.114237
 C        -1.021727         0.582277         0.608422
 C        -1.322677         1.979643         1.067387
 C        -2.442868         1.072055         1.816016
 C        -1.283653         0.235467         2.278347
 C        -3.823032         1.764550         2.008795
 C        -4.160443         1.827689         0.488562
 O        -3.496570         0.873523        -0.283426
 C        -2.553173         0.166517         0.575398
 H        -0.201879        -0.062026        -0.958074
 H        -0.423760         2.361431         1.635488
 H        -1.505860         2.729678         0.314213
 H        -0.544478         0.618723         2.924458
 H        -1.450158        -0.877075         2.454438
 H        -4.621352         1.236700         2.508487
 H        -3.776101         2.817870         2.380878
 H        -5.286958         1.575477         0.417904
 H        -3.811658         2.854354         0.122266
 H        -2.781862        -0.981004         0.588007
