19
Iteration:  3413charge 0 multiplicity 1
 O         0.070536         0.014170        -0.044571
 C        -0.994381         0.536534         0.698041
 C        -1.159624         2.070120         1.070330
 C        -2.323888         1.266291         1.771956
 C        -1.278540         0.221225         2.209792
 C        -3.791715         1.796881         2.058775
 C        -4.448372         1.468564         0.554750
 O        -3.422309         1.090580        -0.417483
 C        -2.452447         0.330061         0.472003
 H        -0.308338        -0.310368        -0.899318
 H        -0.359944         2.397647         1.787918
 H        -1.504097         2.919272         0.438069
 H        -0.451114         0.362544         3.042806
 H        -1.612123        -0.822768         2.501275
 H        -4.461000         1.192365         2.691155
 H        -3.916480         2.847471         2.405165
 H        -5.210318         0.689901         0.755814
 H        -4.852562         2.465680         0.128433
 H        -2.779648        -0.730192         0.645574
