19
Iteration:  2598charge 0 multiplicity 1
 O         0.056336        -0.089529        -0.053240
 C        -0.923509         0.530678         0.689091
 C        -1.250661         2.041386         0.974832
 C        -2.366074         1.187007         1.799902
 C        -1.217034         0.222355         2.142623
 C        -3.761142         1.762862         1.974134
 C        -4.449951         1.575370         0.675816
 O        -3.425471         1.067666        -0.350869
 C        -2.544666         0.417134         0.512677
 H         0.814874         0.475378        -0.186818
 H        -0.694489         2.654431         1.615931
 H        -1.594328         2.593183         0.098914
 H        -0.493826         0.675155         2.961839
 H        -1.502236        -0.806250         2.417152
 H        -4.353223         1.330241         2.761895
 H        -3.729779         2.827248         2.306688
 H        -5.249320         0.881295         0.590802
 H        -4.867481         2.489540         0.232929
 H        -2.746786        -0.660335         0.571065
