19
Iteration:  4132
 O         0.208475         0.028738         0.039359
 C        -0.958561         0.547971         0.689859
 C        -1.194299         2.094338         1.009788
 C        -2.274440         1.278448         1.742172
 C        -1.364655         0.159886         2.188166
 C        -3.870146         1.665746         2.024728
 C        -4.384180         1.774210         0.566729
 O        -3.507667         0.959445        -0.343006
 C        -2.507050         0.295355         0.481819
 H        -0.139172        -0.011071        -0.880072
 H        -0.555583         2.531618         1.745980
 H        -1.506399         2.718011         0.117979
 H        -0.560007         0.287134         2.981785
 H        -1.819976        -0.809753         2.259781
 H        -4.186984         0.757949         2.558990
 H        -3.971203         2.553735         2.611420
 H        -5.353572         1.302731         0.438833
 H        -4.201292         2.811254         0.221395
 H        -2.752462        -0.784482         0.503884
