19
Iteration:  1515
 O         0.114540         0.162921        -0.102795
 C        -1.021560         0.437124         0.757711
 C        -1.291058         1.908072         1.013994
 C        -2.446632         1.012935         1.804342
 C        -1.248379         0.125607         2.245470
 C        -3.875086         1.565729         2.016712
 C        -4.106374         2.015242         0.497367
 O        -3.405416         1.158832        -0.332461
 C        -2.573002         0.295196         0.491461
 H         0.272925        -0.793465        -0.218809
 H        -0.654313         2.508547         1.719767
 H        -1.662663         2.509073         0.187874
 H        -0.582142         0.599758         2.884399
 H        -1.554787        -0.823851         2.629741
 H        -4.733566         0.794425         2.295782
 H        -4.091922         2.373629         2.727557
 H        -5.189612         1.908808         0.330693
 H        -3.856975         3.124068         0.272125
 H        -3.021206        -0.704413         0.344757
