19
Iteration:   644charge 0 multiplicity 1
 O         0.154615        -0.006353         0.063051
 C        -1.029079         0.542396         0.728255
 C        -1.258568         2.026137         0.922001
 C        -2.317849         1.273652         1.766689
 C        -1.303218         0.164585         2.187724
 C        -3.848448         1.687121         1.957433
 C        -4.368250         1.670763         0.473271
 O        -3.328649         1.102991        -0.301337
 C        -2.553758         0.352231         0.576242
 H        -0.030991        -0.693189        -0.635157
 H        -0.440584         2.445343         1.526695
 H        -1.557355         2.697824         0.117405
 H        -0.537265         0.387054         2.920356
 H        -1.615000        -0.883519         2.309350
 H        -4.347718         0.913273         2.527599
 H        -4.231785         2.561082         2.495629
 H        -5.347968         1.278666         0.329285
 H        -4.410907         2.761125         0.287434
 H        -3.014257        -0.651585         0.735939
