19
Iteration:  1429charge 0 multiplicity 1
 O         0.181681         0.041582         0.044267
 C        -0.987961         0.530156         0.684159
 C        -1.243687         1.941491         1.085705
 C        -2.451621         1.090998         1.740927
 C        -1.380095         0.082087         2.182923
 C        -3.766977         1.726304         2.116216
 C        -4.349622         1.829446         0.496962
 O        -3.381409         1.141865        -0.375214
 C        -2.509533         0.274891         0.410305
 H         0.076015         0.302581        -0.934796
 H        -0.599507         2.455788         1.836042
 H        -1.592067         2.668617         0.351301
 H        -0.720403         0.254395         2.999479
 H        -1.791270        -0.961745         2.176124
 H        -4.302208         1.073164         2.855822
 H        -3.585408         2.724047         2.474762
 H        -5.373954         1.633836         0.432333
 H        -4.137100         2.850543         0.227222
 H        -2.977025        -0.685205         0.408988
