19
Iteration:  4481
 O         0.127426         0.087445         0.026008
 C        -0.976281         0.565514         0.721477
 C        -1.447555         1.971294         0.883014
 C        -2.395278         1.163320         1.836077
 C        -1.145659         0.239704         2.226652
 C        -3.810104         1.609672         2.018540
 C        -4.227941         1.831038         0.478866
 O        -3.483628         0.994119        -0.344131
 C        -2.563549         0.224979         0.543400
 H         0.792727         0.770126         0.030199
 H        -0.766821         2.622110         1.527013
 H        -1.850395         2.270446        -0.036136
 H        -0.285209         0.513946         2.880254
 H        -1.551722        -0.692441         2.473935
 H        -4.211347         0.703424         2.522392
 H        -3.968322         2.586755         2.482936
 H        -5.279167         1.584430         0.223882
 H        -4.043556         2.878975         0.163875
 H        -2.822567        -0.855378         0.464641
