19
Iteration:   581
 O         0.057616         0.133481        -0.128723
 C        -0.979277         0.479971         0.757692
 C        -1.419253         1.983095         0.992201
 C        -2.486354         1.071596         1.760212
 C        -1.312856         0.215112         2.289720
 C        -3.766374         1.748901         2.003086
 C        -4.146943         1.980770         0.482008
 O        -3.389443         0.907561        -0.340791
 C        -2.500259         0.198117         0.525144
 H         0.782559        -0.320140         0.421645
 H        -0.814705         2.588523         1.689512
 H        -1.738565         2.588950         0.185001
 H        -0.591803         0.644449         3.077738
 H        -1.525293        -0.825530         2.586627
 H        -4.406331         0.946670         2.291023
 H        -3.756731         2.584213         2.687847
 H        -5.208740         1.902605         0.313954
 H        -3.747278         2.915323         0.022219
 H        -2.830796        -0.857895         0.644594
