19
Iteration:  4889
 O         0.083225        -0.024713        -0.001773
 C        -0.990000         0.556708         0.680510
 C        -1.325602         1.993700         1.016393
 C        -2.376058         1.149193         1.815570
 C        -1.250124         0.269910         2.216420
 C        -3.862417         1.632189         2.057613
 C        -4.382945         1.628082         0.502999
 O        -3.244218         1.139106        -0.388609
 C        -2.525292         0.340241         0.480747
 H         0.247659         0.462583        -0.833203
 H        -0.614341         2.415063         1.743818
 H        -1.808517         2.647511         0.297521
 H        -0.491705         0.693863         2.860043
 H        -1.430436        -0.627942         2.865453
 H        -4.528808         1.119556         2.716526
 H        -3.916167         2.663477         2.437195
 H        -5.325821         1.028332         0.503115
 H        -4.669767         2.585732         0.118697
 H        -2.806521        -0.703896         0.429330
