19
Iteration:  2355charge 0 multiplicity 1
 O         0.010644        -0.101736        -0.145672
 C        -0.895890         0.544693         0.740399
 C        -1.363272         2.121602         0.994568
 C        -2.357549         1.184397         1.763490
 C        -1.275945         0.272940         2.236235
 C        -3.764207         1.742999         2.015346
 C        -4.333364         1.646464         0.575506
 O        -3.382749         1.095032        -0.284383
 C        -2.520269         0.248766         0.490024
 H         0.825977         0.429354        -0.330270
 H        -0.589044         2.535903         1.626505
 H        -1.772562         2.647154         0.189535
 H        -0.510274         0.756034         2.938681
 H        -1.600977        -0.856238         2.377751
 H        -4.266362         0.950500         2.688615
 H        -3.944601         2.749995         2.420295
 H        -5.065126         0.853786         0.648999
 H        -4.556183         2.640469         0.192070
 H        -2.920546        -0.786420         0.476045
