19
Iteration:  2509
 O        -0.063421        -0.044570        -0.102879
 C        -0.986431         0.577554         0.665536
 C        -1.289703         2.111521         0.993377
 C        -2.330165         1.216494         1.708077
 C        -1.276285         0.222885         2.140645
 C        -3.738417         1.744015         2.009764
 C        -4.297139         1.543699         0.601292
 O        -3.395932         1.051119        -0.270463
 C        -2.460521         0.326322         0.499272
 H         0.702721        -0.036393         0.479970
 H        -0.619938         2.373238         1.768190
 H        -1.564869         2.951211         0.359716
 H        -0.655364         0.810999         2.962838
 H        -1.611692        -0.841861         2.337487
 H        -4.306642         1.133239         2.729772
 H        -3.711958         2.784139         2.425567
 H        -5.189711         1.013568         0.864239
 H        -4.773974         2.417824         0.211851
 H        -2.854313        -0.664964         0.543059
