19
Iteration:  4896
 O         0.072722         0.000407         0.026522
 C        -0.954338         0.514936         0.714108
 C        -1.322586         2.039837         1.027518
 C        -2.380387         1.189794         1.739052
 C        -1.248712         0.218178         2.193904
 C        -3.833424         1.653387         2.039011
 C        -4.411427         1.618825         0.494934
 O        -3.277984         1.115013        -0.333948
 C        -2.521865         0.352860         0.489053
 H         0.362042         0.593869        -0.665574
 H        -0.672779         2.559420         1.695703
 H        -1.630801         2.463202         0.034185
 H        -0.430654         0.604386         2.794092
 H        -1.708655        -0.788009         2.382177
 H        -4.402687         1.032266         2.771009
 H        -3.857259         2.674828         2.499726
 H        -5.283837         0.965666         0.414194
 H        -4.656068         2.678701         0.176295
 H        -2.834080        -0.728400         0.585871
