19
Iteration:  3430
 O         0.078128         0.087457        -0.121633
 C        -0.943585         0.561744         0.766295
 C        -1.029375         1.954514         1.133641
 C        -2.375173         1.252709         1.698410
 C        -1.304835         0.158325         2.266345
 C        -3.810619         1.788256         1.894953
 C        -4.500250         1.457776         0.604299
 O        -3.417884         1.082572        -0.352386
 C        -2.515245         0.439361         0.532744
 H        -0.395456        -0.047743        -0.984273
 H        -0.373733         2.376335         1.876131
 H        -1.046009         2.475965         0.157281
 H        -0.640922         0.604717         2.899594
 H        -1.642503        -0.852860         2.491401
 H        -4.057815         1.398513         2.897418
 H        -3.846404         2.881080         1.989306
 H        -5.160334         0.562673         0.780079
 H        -5.220725         2.060016         0.110300
 H        -2.903624        -0.565900         0.742220
