19
Iteration:   113
 O         0.024963         0.037817        -0.086685
 C        -1.018357         0.527000         0.732317
 C        -1.155020         1.961869         1.159733
 C        -2.378156         1.279112         1.786466
 C        -1.224232         0.165309         2.214933
 C        -3.794263         1.869146         1.898566
 C        -4.388811         1.595983         0.505747
 O        -3.395925         1.021633        -0.411556
 C        -2.559972         0.330212         0.525521
 H         0.630919        -0.493088         0.461460
 H        -0.449690         2.424613         1.900577
 H        -1.382523         2.785364         0.411408
 H        -0.429021         0.655315         2.801588
 H        -1.571460        -0.890410         2.434571
 H        -4.349166         1.297904         2.614782
 H        -3.813678         2.973819         2.146382
 H        -5.153700         0.812013         0.706909
 H        -4.897362         2.427200         0.100837
 H        -2.903082        -0.726304         0.640143
