19
Iteration:  1211
 O         0.066179        -0.003637        -0.077898
 C        -0.982372         0.515189         0.765829
 C        -1.297353         2.026509         1.026016
 C        -2.443592         1.169941         1.817256
 C        -1.341737         0.204174         2.258566
 C        -3.779925         1.573262         1.997016
 C        -4.168832         1.822508         0.570109
 O        -3.347089         1.151271        -0.371729
 C        -2.522928         0.331615         0.399559
 H        -0.196001        -0.904441        -0.291818
 H        -0.758680         2.537252         1.753840
 H        -1.713999         2.717188         0.242730
 H        -0.591021         0.516663         3.029169
 H        -1.667137        -0.864967         2.364728
 H        -4.349743         0.803061         2.390129
 H        -3.887295         2.385258         2.685511
 H        -5.180438         1.445166         0.267246
 H        -4.214723         2.881288         0.335812
 H        -2.975552        -0.631815         0.537744
