19
Iteration:   800charge 0 multiplicity 1
 O         0.044858         0.061994        -0.089117
 C        -1.038103         0.521356         0.724719
 C        -1.221983         2.003472         0.950584
 C        -2.396293         1.202135         1.846273
 C        -1.231957         0.221774         2.242737
 C        -3.911035         1.643415         1.961547
 C        -4.292118         1.874557         0.458121
 O        -3.375549         0.969722        -0.355912
 C        -2.496259         0.252686         0.617278
 H         0.866844        -0.166780         0.431387
 H        -0.456326         2.413593         1.638488
 H        -1.516326         2.712499         0.133104
 H        -0.434489         0.637267         2.970045
 H        -1.448352        -0.838940         2.521992
 H        -4.523427         0.832081         2.351464
 H        -4.137984         2.538148         2.525790
 H        -5.375466         1.604621         0.348478
 H        -4.203152         2.886966        -0.032566
 H        -2.907879        -0.802763         0.748223
