19
Iteration:  2699charge 0 multiplicity 1
 O        -0.103128         0.135178        -0.215198
 C        -0.998438         0.598630         0.747883
 C        -1.343996         2.025264         1.048080
 C        -2.404708         1.151367         1.886119
 C        -1.080813         0.235763         2.246834
 C        -3.775684         1.748564         2.012112
 C        -4.120422         1.826267         0.442295
 O        -3.498185         0.776880        -0.328837
 C        -2.601100         0.206823         0.596912
 H         0.847335         0.249902         0.062037
 H        -0.612511         2.527624         1.660177
 H        -1.554161         2.712373         0.277989
 H        -0.324360         0.821766         2.816373
 H        -1.403562        -0.793518         2.606942
 H        -4.369650         0.936184         2.510638
 H        -4.007386         2.740518         2.471764
 H        -5.155895         1.813373         0.291508
 H        -3.865537         2.745029        -0.099032
 H        -2.524155        -0.910415         0.476922
