19
Iteration:  3928charge 0 multiplicity 1
 O        -0.023263         0.001881        -0.065067
 C        -0.909168         0.637764         0.777129
 C        -1.309171         2.081409         1.145766
 C        -2.406574         1.219871         1.774168
 C        -1.165622         0.192967         2.169253
 C        -3.780080         1.646381         1.955238
 C        -4.207407         1.820120         0.467473
 O        -3.525099         0.843165        -0.356704
 C        -2.457493         0.314079         0.611487
 H        -0.211747         0.475532        -0.890166
 H        -0.550713         2.579168         1.738759
 H        -1.514107         2.578039         0.149418
 H        -0.481830         0.720421         2.914000
 H        -1.449385        -0.851864         2.150124
 H        -4.453596         0.789078         2.214461
 H        -4.092081         2.492225         2.593794
 H        -5.238489         1.513702         0.487762
 H        -4.011890         2.863346         0.094097
 H        -2.874760        -0.681986         0.632263
