19
Iteration:  3730charge 0 multiplicity 1
 O         0.130612         0.077445        -0.104901
 C        -0.967445         0.575776         0.645063
 C        -1.260325         2.051185         1.146989
 C        -2.322162         1.139362         1.833707
 C        -1.361163         0.049509         2.177136
 C        -3.657893         1.931453         1.969478
 C        -4.447080         1.584891         0.498330
 O        -3.437013         0.947768        -0.313615
 C        -2.548296         0.321808         0.578417
 H         0.686393         0.826460        -0.449586
 H        -0.595174         2.573941         1.865906
 H        -1.687091         2.657027         0.351316
 H        -0.469138         0.348477         2.789714
 H        -1.815286        -0.908802         2.333039
 H        -4.443406         1.595817         2.686044
 H        -3.503925         2.994128         2.070160
 H        -5.347620         0.976278         0.607279
 H        -4.908971         2.423065        -0.107346
 H        -2.716552        -0.787010         0.498748
