19
Iteration:  2489charge 0 multiplicity 1
 O         0.058202        -0.036469        -0.108012
 C        -0.914987         0.536828         0.680983
 C        -1.325261         2.049081         0.911822
 C        -2.313713         1.221292         1.761508
 C        -1.282083         0.265430         2.271190
 C        -3.785879         1.632646         2.114155
 C        -4.429139         1.725968         0.649540
 O        -3.407600         1.045880        -0.394945
 C        -2.513212         0.322621         0.478223
 H         0.858968        -0.130577         0.467160
 H        -0.600654         2.734537         1.272513
 H        -1.757960         2.413954        -0.041345
 H        -0.396987         0.699871         2.809218
 H        -1.515639        -0.751885         2.390137
 H        -4.210361         0.835850         2.735999
 H        -3.645871         2.642947         2.614452
 H        -5.357819         1.164537         0.461466
 H        -4.566792         2.796230         0.397442
 H        -2.926204        -0.645467         0.660478
