19
Iteration:  1951
 O        -0.013609         0.188896        -0.206311
 C        -1.068059         0.366550         0.721873
 C        -1.205349         1.938177         1.117222
 C        -2.329359         1.214290         1.769983
 C        -1.378624         0.137411         2.212923
 C        -3.763151         1.792339         1.965004
 C        -4.328611         1.626735         0.529807
 O        -3.269032         1.096482        -0.304982
 C        -2.555498         0.329829         0.515684
 H         0.731377        -0.364564         0.142301
 H        -0.301263         2.330698         1.630553
 H        -1.421138         2.730080         0.283176
 H        -0.551111         0.579681         2.880647
 H        -1.832879        -0.727615         2.803103
 H        -4.399225         1.172149         2.650990
 H        -3.667412         2.806764         2.343356
 H        -5.250624         0.993018         0.511737
 H        -4.609081         2.685591         0.338153
 H        -3.110505        -0.673143         0.732023
