19
Iteration:  4864
 O         0.005033         0.015798        -0.075732
 C        -0.939423         0.543446         0.793109
 C        -1.380846         2.072205         1.117388
 C        -2.377217         1.099854         1.711572
 C        -1.179556         0.309746         2.316421
 C        -3.810083         1.610094         1.954900
 C        -4.339008         1.666533         0.460035
 O        -3.264727         1.138888        -0.352506
 C        -2.516565         0.287565         0.494260
 H        -0.461536        -0.203468        -0.922977
 H        -0.837839         2.608245         1.833583
 H        -1.598479         2.578218         0.145672
 H        -0.526770         0.618830         3.061826
 H        -1.279702        -0.759567         2.657852
 H        -4.472318         0.938520         2.493399
 H        -3.813581         2.588553         2.517649
 H        -5.265619         1.087601         0.457252
 H        -4.631139         2.704021         0.076921
 H        -2.913331        -0.747650         0.495495
