19
Iteration:  2207
 O        -0.059414         0.046313        -0.106108
 C        -0.977597         0.469738         0.742333
 C        -1.194159         2.006713         0.927561
 C        -2.319429         1.208136         1.713721
 C        -1.305897         0.290271         2.348125
 C        -3.756500         1.649093         1.936390
 C        -4.316642         1.655747         0.614228
 O        -3.399084         1.037582        -0.322389
 C        -2.499200         0.270039         0.488663
 H         0.572923         0.778079        -0.324982
 H        -0.552708         2.490143         1.701058
 H        -1.365153         2.735672         0.141008
 H        -0.528083         0.685319         3.099321
 H        -1.841078        -0.696926         2.467133
 H        -4.389032         1.112977         2.568856
 H        -3.659398         2.683357         2.318700
 H        -5.221473         1.129468         0.651432
 H        -4.684673         2.695003         0.374008
 H        -3.040702        -0.602983         0.737817
