19
Iteration:   627
 O         0.072105        -0.018273         0.021320
 C        -0.969764         0.525354         0.731108
 C        -1.234051         2.053032         0.974118
 C        -2.408514         1.290332         1.757462
 C        -1.205232         0.204527         2.193720
 C        -3.903420         1.535489         1.974634
 C        -4.325911         1.880509         0.493433
 O        -3.347407         1.046170        -0.345909
 C        -2.528250         0.359325         0.580455
 H        -0.051206        -0.983850        -0.045894
 H        -0.547254         2.703081         1.551831
 H        -1.583892         2.435944         0.016016
 H        -0.374607         0.503445         2.925179
 H        -1.627062        -0.748358         2.541531
 H        -4.327712         0.530450         2.262113
 H        -4.034560         2.424390         2.616132
 H        -5.273021         1.258447         0.210682
 H        -4.380814         2.847685        -0.011245
 H        -2.965828        -0.633119         0.806156
