19
Iteration:  3113
 O        -0.095508         0.027773        -0.123793
 C        -1.028868         0.543780         0.681708
 C        -1.224997         2.065876         1.015921
 C        -2.365927         1.205066         1.743978
 C        -1.234931         0.184853         2.285182
 C        -3.798744         1.743031         1.975390
 C        -4.298159         1.670839         0.558497
 O        -3.343783         1.009197        -0.338750
 C        -2.504238         0.276236         0.515949
 H         0.668419         0.652068        -0.092001
 H        -0.355663         2.460871         1.613159
 H        -1.366239         2.662170         0.076571
 H        -0.687190         0.608582         3.197516
 H        -1.566626        -0.921794         2.601237
 H        -4.214038         0.907281         2.626334
 H        -3.948051         2.680000         2.646175
 H        -5.275561         1.163999         0.594184
 H        -4.467116         2.702529         0.273992
 H        -2.772177        -0.828324         0.670799
