19
Iteration:  1365
 O        -0.016966        -0.087196        -0.114045
 C        -0.948563         0.530233         0.721422
 C        -1.146265         2.042543         1.101917
 C        -2.412014         1.171359         1.787920
 C        -1.311188         0.162639         2.215275
 C        -3.841822         1.694878         2.035058
 C        -4.362827         1.673354         0.506869
 O        -3.353132         1.232052        -0.355288
 C        -2.479607         0.394850         0.450755
 H         0.773413        -0.300540         0.435922
 H        -0.563411         2.458454         1.921015
 H        -1.477615         2.696906         0.334647
 H        -0.553608         0.417179         2.946788
 H        -1.675958        -0.927619         2.163160
 H        -4.353297         0.876852         2.402631
 H        -4.052118         2.575426         2.613255
 H        -5.222411         0.948866         0.444211
 H        -4.590433         2.595869        -0.007429
 H        -2.813963        -0.730269         0.554064
