19
Iteration:   653charge 0 multiplicity 1
 O         0.144992        -0.002548         0.062399
 C        -0.979194         0.508073         0.689993
 C        -1.241975         1.993262         0.975677
 C        -2.360343         1.222089         1.824008
 C        -1.320234         0.226204         2.245022
 C        -3.820802         1.729089         2.044870
 C        -4.369647         1.707913         0.534563
 O        -3.354168         1.078417        -0.400604
 C        -2.543803         0.342078         0.468665
 H        -0.054860        -0.409372        -0.816988
 H        -0.514407         2.445108         1.663918
 H        -1.570032         2.600888         0.067511
 H        -0.592886         0.546928         2.946805
 H        -1.732167        -0.800305         2.453938
 H        -4.350764         0.924072         2.640791
 H        -3.933031         2.811076         2.323494
 H        -5.199069         0.956854         0.332944
 H        -4.636834         2.653748         0.015717
 H        -2.906390        -0.724123         0.532624
