19
Iteration:  4695charge 0 multiplicity 1
 O         0.016357         0.118801        -0.042359
 C        -0.977188         0.569191         0.767493
 C        -1.322343         2.052707         1.046621
 C        -2.411618         1.169346         1.809108
 C        -1.204556         0.179964         2.191893
 C        -3.863753         1.639983         2.002944
 C        -4.297816         1.653104         0.471822
 O        -3.285968         1.019533        -0.427364
 C        -2.502139         0.367911         0.630941
 H        -0.383757        -0.373490        -0.771438
 H        -0.436872         2.476669         1.597081
 H        -1.549123         2.675878         0.160599
 H        -0.454080         0.364751         3.063293
 H        -1.460163        -0.833651         2.341516
 H        -4.657338         1.131761         2.594326
 H        -3.734844         2.692012         2.160320
 H        -5.184257         1.007258         0.465790
 H        -4.487901         2.693624         0.180860
 H        -2.857079        -0.671527         0.811361
