19
Iteration:  4148
 O         0.171560         0.123983         0.110170
 C        -0.979098         0.572934         0.717347
 C        -1.295178         2.006952         0.900032
 C        -2.445080         1.132880         1.759888
 C        -1.291679         0.126428         2.209780
 C        -3.738428         1.677292         2.090420
 C        -4.281867         1.862659         0.576918
 O        -3.484507         0.915669        -0.383499
 C        -2.522819         0.321163         0.416617
 H         0.212232         0.073779        -0.834652
 H        -0.421636         2.609329         1.312275
 H        -1.703684         2.506474         0.044093
 H        -0.628551         0.351499         3.024725
 H        -1.645165        -0.998918         2.403583
 H        -4.415436         0.917448         2.492166
 H        -3.831469         2.666211         2.688167
 H        -5.376923         1.658299         0.530140
 H        -4.255719         2.886630         0.194445
 H        -2.752221        -0.752559         0.608199
