19
Iteration:  1887
 O         0.047815        -0.111313         0.078475
 C        -1.038368         0.597561         0.683257
 C        -1.127022         2.045081         1.040664
 C        -2.375672         1.127577         1.827713
 C        -1.216345         0.118581         2.120534
 C        -3.787502         1.668711         2.036907
 C        -4.423018         1.682266         0.520520
 O        -3.366849         1.236933        -0.433089
 C        -2.582180         0.390287         0.523171
 H         0.251344         0.317609        -0.798702
 H        -0.339587         2.379752         1.694527
 H        -1.468990         2.849576         0.338392
 H        -0.515105         0.382468         3.002068
 H        -1.490424        -0.993956         2.211065
 H        -4.372661         0.940640         2.622752
 H        -3.847787         2.556852         2.599410
 H        -5.277766         1.026317         0.550812
 H        -4.710550         2.601893        -0.000426
 H        -2.998595        -0.670540         0.559196
