19
Iteration:  1992
 O         0.143245        -0.029006        -0.019418
 C        -0.911539         0.549380         0.744520
 C        -1.311322         2.030840         1.079542
 C        -2.412652         1.107940         1.742489
 C        -1.266639         0.189391         2.185133
 C        -3.759833         1.682483         1.989608
 C        -4.384598         1.808832         0.637647
 O        -3.506169         1.061004        -0.343149
 C        -2.417955         0.352634         0.404469
 H        -0.179909        -0.809867        -0.526415
 H        -0.841811         2.789577         1.761672
 H        -1.645149         2.508420         0.119851
 H        -0.481844         0.577183         2.705966
 H        -1.457175        -0.853007         2.325617
 H        -4.355364         1.217565         2.810111
 H        -3.605303         2.798139         2.199989
 H        -5.467394         1.399409         0.548776
 H        -4.374068         2.832999         0.212537
 H        -2.685055        -0.673243         0.382093
