19
Iteration:  1411charge 0 multiplicity 1
 O         0.148570        -0.031853         0.069358
 C        -0.997834         0.503078         0.764573
 C        -1.313618         1.993457         1.004632
 C        -2.400177         1.099005         1.665026
 C        -1.403016         0.073647         2.202691
 C        -3.722025         1.649394         2.015054
 C        -4.280729         1.852547         0.693763
 O        -3.366550         1.179292        -0.411440
 C        -2.575455         0.373866         0.378479
 H         0.503276         0.784143        -0.403936
 H        -0.565484         2.464521         1.659469
 H        -1.509967         2.425187         0.051297
 H        -0.713412         0.572919         2.936374
 H        -1.743597        -0.989713         2.357805
 H        -4.383428         0.985479         2.483954
 H        -3.596440         2.601668         2.548472
 H        -5.139719         1.104023         0.553163
 H        -4.572017         2.852289         0.394077
 H        -2.952418        -0.742535         0.339664
