19
Iteration:  4746charge 0 multiplicity 1
 O         0.206186         0.192155        -0.038148
 C        -0.973341         0.561527         0.737705
 C        -1.245013         2.002851         0.964625
 C        -2.424819         1.130468         1.732086
 C        -1.277490         0.243400         2.293568
 C        -3.855629         1.540956         2.024382
 C        -4.265471         1.836045         0.468770
 O        -3.515099         0.979204        -0.350011
 C        -2.592188         0.253714         0.505904
 H         0.314584        -0.748881         0.092273
 H        -0.541521         2.618615         1.524120
 H        -1.645421         2.550764         0.052413
 H        -0.643513         0.677128         2.980754
 H        -1.220706        -0.822108         2.641353
 H        -4.380388         0.734617         2.499541
 H        -3.942110         2.472482         2.680399
 H        -5.362178         1.969194         0.341485
 H        -3.739660         2.764971         0.303761
 H        -2.770776        -0.824093         0.502001
