19
Iteration:  2267charge 0 multiplicity 1
 O        -0.106373         0.067176        -0.138568
 C        -0.966260         0.544377         0.708008
 C        -1.247463         1.989856         1.063109
 C        -2.408066         1.175822         1.757442
 C        -1.207257         0.193762         2.219748
 C        -3.696292         1.862321         1.995569
 C        -4.452703         1.554458         0.492364
 O        -3.329432         1.051489        -0.299217
 C        -2.503157         0.315918         0.519262
 H         0.827983        -0.022559         0.180533
 H        -0.690791         2.391058         1.906596
 H        -1.439556         2.697627         0.259913
 H        -0.358052         0.535328         2.825385
 H        -1.353441        -0.877286         2.633962
 H        -4.321899         1.482435         2.901914
 H        -3.551812         2.920745         2.204864
 H        -5.261225         0.711244         0.555510
 H        -4.867296         2.395280        -0.095256
 H        -2.721615        -0.809718         0.693280
