19
Iteration:   808
 O         0.056239         0.085946        -0.135771
 C        -0.944338         0.466860         0.755662
 C        -1.227792         1.995321         1.003396
 C        -2.427737         1.209298         1.746098
 C        -1.295362         0.238928         2.290948
 C        -3.851860         1.644937         1.971349
 C        -4.265126         1.904883         0.482842
 O        -3.429030         0.917631        -0.336393
 C        -2.537434         0.270587         0.581986
 H         0.857278        -0.180399         0.370059
 H        -0.554765         2.617423         1.669687
 H        -1.567161         2.614743         0.210466
 H        -0.654449         0.745148         3.030172
 H        -1.534603        -0.735719         2.581751
 H        -4.512389         0.882347         2.358387
 H        -4.049653         2.519216         2.642738
 H        -5.323411         1.597842         0.239298
 H        -4.005674         2.876536        -0.013577
 H        -2.577444        -0.809829         0.608511
