19
Iteration:  1642charge 0 multiplicity 1
 O        -0.045287        -0.005786        -0.129437
 C        -0.962600         0.541117         0.680453
 C        -1.240430         1.963076         1.216318
 C        -2.403309         1.086214         1.817822
 C        -1.321574         0.144079         2.216932
 C        -3.833744         1.713353         1.989684
 C        -4.346265         1.666626         0.549669
 O        -3.215446         1.261988        -0.379845
 C        -2.472951         0.439149         0.422148
 H        -0.189330        -0.972257        -0.337186
 H        -0.507838         2.260513         1.970138
 H        -1.455213         2.799002         0.474629
 H        -0.677800         0.488454         3.112304
 H        -1.706914        -0.943722         2.286369
 H        -4.378573         0.976074         2.528787
 H        -3.729525         2.693053         2.500965
 H        -5.130548         0.898012         0.448765
 H        -4.702849         2.608935         0.197197
 H        -2.850345        -0.579253         0.380883
