19
Iteration:  2295
 O         0.094696        -0.064123        -0.143540
 C        -0.944729         0.525075         0.658308
 C        -1.234684         2.030461         0.934007
 C        -2.309179         1.281868         1.721905
 C        -1.421813         0.236164         2.304241
 C        -3.739669         1.699596         2.034626
 C        -4.429885         1.521056         0.695239
 O        -3.371068         1.115075        -0.366659
 C        -2.545254         0.429454         0.492601
 H         1.007167        -0.114307         0.249638
 H        -0.571354         2.661397         1.603263
 H        -1.550707         2.705004         0.063155
 H        -0.599288         0.536205         2.969587
 H        -1.761637        -0.782893         2.599607
 H        -4.064687         1.055443         2.784282
 H        -3.981928         2.719117         2.395570
 H        -5.231730         0.815735         0.494242
 H        -4.935114         2.423788         0.256871
 H        -2.863034        -0.559099         0.781985
