19
Iteration:   992
 O         0.167077         0.149444        -0.064328
 C        -1.035501         0.528214         0.721955
 C        -1.193888         1.967797         1.049241
 C        -2.421323         1.124147         1.769912
 C        -1.438051         0.069488         2.359026
 C        -3.712438         1.857268         1.965751
 C        -4.408594         1.626488         0.565509
 O        -3.333301         1.144018        -0.425168
 C        -2.557223         0.303553         0.416068
 H         0.062236        -0.730447        -0.399596
 H        -0.488642         2.283569         1.834885
 H        -1.463901         2.743727         0.371593
 H        -0.602424         0.329723         3.070192
 H        -1.681669        -0.998066         2.490707
 H        -4.261944         1.538171         2.872548
 H        -3.451841         2.950484         2.176285
 H        -5.091593         0.769605         0.694372
 H        -4.908253         2.468658         0.149000
 H        -2.722946        -0.804565         0.531737
