19
Iteration:   273
 O         0.106169         0.106991        -0.078996
 C        -1.036430         0.575585         0.725901
 C        -1.388810         2.021756         1.014325
 C        -2.476467         0.998452         1.800089
 C        -1.243005         0.192310         2.334371
 C        -3.762870         1.773254         2.071405
 C        -4.199251         1.884911         0.412912
 O        -3.340359         0.979714        -0.385377
 C        -2.558971         0.199099         0.554466
 H         0.146780        -0.857204        -0.198925
 H        -0.665622         2.599677         1.531757
 H        -1.745742         2.526624         0.164905
 H        -0.604331         0.620564         3.036904
 H        -1.520642        -0.819878         2.384399
 H        -4.518116         1.216737         2.604676
 H        -3.657348         2.804755         2.397281
 H        -5.254353         1.635362         0.234553
 H        -4.018030         2.933145        -0.007426
 H        -2.900818        -0.833800         0.458250
