19
Iteration:  2686
 O        -0.057766         0.058975        -0.239995
 C        -0.984329         0.540199         0.690848
 C        -1.357209         2.063464         1.135635
 C        -2.346809         1.159232         1.810412
 C        -1.064539         0.292375         2.264663
 C        -3.835008         1.673423         1.959243
 C        -4.228365         1.880347         0.421868
 O        -3.495802         0.828630        -0.296001
 C        -2.527593         0.190309         0.613621
 H         0.808611         0.370411         0.020787
 H        -0.801474         2.655552         1.775552
 H        -1.838277         2.554116         0.334143
 H        -0.193148         0.745985         2.878526
 H        -1.156714        -0.724416         2.681126
 H        -4.527783         1.059996         2.467976
 H        -3.841535         2.700519         2.413672
 H        -5.283324         1.832970         0.168090
 H        -3.721724         2.814526         0.342955
 H        -2.949659        -0.858130         0.865144
