19
Iteration:  3347charge 0 multiplicity 1
 O         0.124944         0.046900        -0.029626
 C        -0.941236         0.480767         0.673289
 C        -1.312218         2.047317         0.916442
 C        -2.380832         1.205701         1.693156
 C        -1.267757         0.297726         2.225948
 C        -3.808897         1.558679         1.981813
 C        -4.192861         1.923515         0.607390
 O        -3.534146         0.909306        -0.295670
 C        -2.566544         0.195620         0.560982
 H         0.250625         0.857239        -0.525366
 H        -0.570394         2.569998         1.558502
 H        -1.714861         2.835305         0.218660
 H        -0.475535         0.734546         2.941896
 H        -1.462537        -0.780264         2.569158
 H        -4.206584         0.598035         2.299870
 H        -4.083501         2.352874         2.699786
 H        -5.213529         1.792122         0.453116
 H        -3.699179         2.844258         0.194230
 H        -3.113792        -0.668814         1.020947
