19
Iteration:  4314
 O         0.148850         0.079128        -0.026917
 C        -0.900774         0.496679         0.752443
 C        -1.119469         1.944126         1.045695
 C        -2.402146         1.226929         1.727691
 C        -1.314101         0.202235         2.193516
 C        -3.762154         1.727233         1.951519
 C        -4.458602         1.536330         0.571564
 O        -3.496599         1.140350        -0.375470
 C        -2.507679         0.432274         0.442226
 H         0.433556        -0.666785         0.498310
 H        -0.545873         2.572862         1.671375
 H        -1.519206         2.510333         0.130625
 H        -0.703718         0.560930         3.001418
 H        -1.562701        -0.791049         2.535004
 H        -4.274380         1.024769         2.620346
 H        -3.845798         2.761617         2.227735
 H        -5.281878         0.835318         0.812143
 H        -5.023409         2.403536         0.222136
 H        -3.005929        -0.545053         0.629958
