19
Iteration:  3243charge 0 multiplicity 1
 O        -0.061102        -0.157424        -0.091434
 C        -0.965359         0.591541         0.637641
 C        -1.306659         2.097225         1.037214
 C        -2.386945         1.262719         1.761951
 C        -1.239205         0.310740         2.247646
 C        -3.778422         1.581005         2.033479
 C        -4.324567         1.659232         0.516114
 O        -3.356232         1.111492        -0.353356
 C        -2.484096         0.343106         0.535866
 H         0.822931         0.221650         0.052617
 H        -0.449924         2.573120         1.580398
 H        -1.616003         2.639960         0.144851
 H        -0.576481         0.913099         2.866242
 H        -1.325185        -0.671124         2.561266
 H        -4.290988         0.706696         2.508648
 H        -3.778590         2.406718         2.780832
 H        -5.200590         0.879269         0.649925
 H        -4.778987         2.532762         0.145261
 H        -2.788743        -0.656385         0.716144
