19
Iteration:  4618
 O         0.209152        -0.040864         0.043848
 C        -0.974368         0.572135         0.645499
 C        -1.189863         2.107072         1.000227
 C        -2.336255         1.203906         1.784276
 C        -1.384826         0.192420         2.157495
 C        -3.760662         1.692162         1.937038
 C        -4.521404         1.520249         0.592409
 O        -3.432486         1.090029        -0.368627
 C        -2.525299         0.383535         0.521093
 H         0.835649         0.730801         0.174301
 H        -0.588606         2.552485         1.780173
 H        -1.390845         2.734338         0.095441
 H        -0.455395         0.425733         2.697868
 H        -1.785538        -0.786326         2.276728
 H        -4.263714         1.107533         2.716785
 H        -3.730618         2.744798         2.137954
 H        -5.299042         0.785085         0.647621
 H        -5.021280         2.437600         0.380142
 H        -2.890948        -0.621323         0.765625
