19
Iteration:   227
 O         0.086575         0.204592        -0.041477
 C        -1.030630         0.539988         0.730954
 C        -1.212608         2.051474         0.989095
 C        -2.337355         1.177078         1.791792
 C        -1.379112         0.127829         2.322330
 C        -3.792272         1.691235         1.965874
 C        -4.089612         1.905790         0.506750
 O        -3.539412         0.826494        -0.382788
 C        -2.573199         0.254651         0.500544
 H        -0.091474        -0.788868         0.091978
 H        -0.448340         2.550488         1.631861
 H        -1.473322         2.744837         0.187792
 H        -0.633680         0.541531         3.057145
 H        -1.837233        -0.874079         2.338648
 H        -4.373683         0.815951         2.379055
 H        -3.746487         2.585086         2.516474
 H        -5.148560         1.890439         0.295489
 H        -3.667876         2.805580        -0.025771
 H        -2.838032        -0.785642         0.761722
