19
Iteration:  2515charge 0 multiplicity 1
 O        -0.080452        -0.039145        -0.118967
 C        -0.969861         0.558622         0.651403
 C        -1.262366         2.084494         1.063569
 C        -2.362104         1.226854         1.758752
 C        -1.265700         0.232911         2.147573
 C        -3.779786         1.789565         2.005694
 C        -4.346022         1.525600         0.631213
 O        -3.384674         1.039148        -0.318525
 C        -2.457632         0.356180         0.497856
 H         0.794822        -0.013860         0.353063
 H        -0.367862         2.393971         1.755918
 H        -1.493466         2.927096         0.390045
 H        -0.545610         0.709934         2.730363
 H        -1.399966        -0.848359         2.297795
 H        -4.357997         1.216694         2.740234
 H        -3.585310         2.851839         2.153348
 H        -5.131664         0.641370         0.712863
 H        -4.732656         2.497439         0.206741
 H        -2.902140        -0.709383         0.715018
