19
Iteration:  3813
 O        -0.095474        -0.122884        -0.023445
 C        -0.939255         0.622955         0.684578
 C        -1.229121         2.119085         1.022625
 C        -2.346953         1.202254         1.751352
 C        -1.247267         0.288802         2.243894
 C        -3.788726         1.504118         2.043759
 C        -4.350454         1.701315         0.571207
 O        -3.451254         1.020095        -0.378069
 C        -2.433209         0.481103         0.439837
 H         0.829949         0.081729         0.125273
 H        -0.376325         2.682911         1.533713
 H        -1.657107         2.612685         0.153264
 H        -0.521582         0.794072         2.840167
 H        -1.434700        -0.844071         2.256197
 H        -4.342888         0.625628         2.359870
 H        -4.000873         2.314718         2.790752
 H        -5.322450         1.143351         0.465350
 H        -4.266396         2.725393         0.239616
 H        -2.626885        -0.570708         0.705878
