19
Iteration:   128charge 0 multiplicity 1
 O        -0.031956        -0.031526        -0.115795
 C        -0.917313         0.491731         0.763018
 C        -1.206023         2.090133         1.092837
 C        -2.353426         1.172963         1.765356
 C        -1.350701         0.190144         2.345221
 C        -3.728387         1.786237         1.978440
 C        -4.418548         1.617620         0.488165
 O        -3.442234         1.038985        -0.408588
 C        -2.429150         0.380391         0.426755
 H         0.900231         0.150079         0.264005
 H        -0.474366         2.609159         1.759164
 H        -1.490522         2.568004         0.143812
 H        -0.529923         0.483591         3.099299
 H        -1.728084        -0.784787         2.804365
 H        -4.422396         1.298299         2.760180
 H        -3.613814         2.823689         2.251472
 H        -5.340394         0.997284         0.530823
 H        -4.646242         2.641543        -0.006942
 H        -2.708180        -0.702165         0.592376
