19
Iteration:  3153
 O         0.060911         0.078362        -0.208259
 C        -0.959349         0.556840         0.719408
 C        -1.303268         2.020041         1.122769
 C        -2.425467         1.144529         1.769544
 C        -1.192994         0.058403         2.333590
 C        -3.745291         1.909604         1.884220
 C        -4.353004         1.664466         0.562633
 O        -3.448485         1.016298        -0.309336
 C        -2.512327         0.215714         0.493507
 H         0.927634         0.233429         0.176271
 H        -0.529671         2.478659         1.759037
 H        -1.781481         2.699973         0.390339
 H        -0.454343         0.647567         2.902647
 H        -1.310298        -0.964360         2.304845
 H        -4.437739         1.707521         2.740765
 H        -3.721970         3.017457         2.181101
 H        -5.307024         1.029352         0.713633
 H        -4.827552         2.510327        -0.026476
 H        -2.935681        -0.757328         0.640274
