19
Iteration:  3727
 O         0.150559         0.060848        -0.096012
 C        -0.972371         0.565406         0.621615
 C        -1.236975         2.059521         1.135002
 C        -2.337875         1.152229         1.844721
 C        -1.336579         0.082726         2.192866
 C        -3.666485         1.937701         2.007557
 C        -4.467767         1.556784         0.474104
 O        -3.446776         0.955441        -0.326944
 C        -2.548570         0.319000         0.558984
 H         0.621637         0.870920        -0.389608
 H        -0.528343         2.484811         1.926562
 H        -1.676393         2.697910         0.383626
 H        -0.433991         0.316615         2.788437
 H        -1.891963        -1.001161         2.235192
 H        -4.470933         1.541107         2.654661
 H        -3.462740         3.030114         2.206637
 H        -5.426065         1.038375         0.674345
 H        -4.885205         2.412565        -0.118928
 H        -2.781517        -0.781198         0.524870
