19
Iteration:  2768charge 0 multiplicity 1
 O         0.086472        -0.092804         0.032388
 C        -1.013842         0.563693         0.681056
 C        -1.355100         2.069515         0.851316
 C        -2.392215         1.265083         1.743274
 C        -1.148253         0.278154         2.196411
 C        -3.728182         1.639660         2.006871
 C        -4.361776         1.649552         0.622764
 O        -3.425798         1.079999        -0.265353
 C        -2.608317         0.254146         0.459400
 H         0.661364         0.598655        -0.368130
 H        -0.535982         2.459642         1.576405
 H        -1.434994         2.883806         0.044642
 H        -0.372511         0.689742         2.831490
 H        -1.312701        -0.806894         2.495767
 H        -4.237727         0.873100         2.737501
 H        -3.844555         2.649052         2.470257
 H        -5.322454         1.242614         0.382602
 H        -4.519857         2.743092         0.342986
 H        -2.842495        -0.814272         0.618597
