19
Iteration:    58charge 0 multiplicity 1
 O         0.090480        -0.025053         0.043058
 C        -0.945241         0.493002         0.764779
 C        -1.187671         1.997649         0.989211
 C        -2.413384         1.173105         1.630095
 C        -1.348003         0.306921         2.326563
 C        -3.684330         1.769705         2.089191
 C        -4.410751         1.551899         0.517741
 O        -3.379418         1.153038        -0.454117
 C        -2.564634         0.300906         0.428952
 H        -0.205543         0.020823        -0.924897
 H        -0.608920         2.421859         1.843100
 H        -1.424941         2.736071         0.180548
 H        -0.789789         0.908398         3.056376
 H        -1.644980        -0.721572         2.782193
 H        -4.131919         1.266897         2.915825
 H        -3.482502         2.857852         2.343245
 H        -5.036426         0.683686         0.773178
 H        -4.990452         2.335386         0.165051
 H        -2.885813        -0.716892         0.614718
