19
Iteration:  3591
 O         0.070438         0.257228        -0.077580
 C        -1.026371         0.528741         0.705024
 C        -1.344324         1.942041         1.035984
 C        -2.393007         1.084936         1.865086
 C        -1.193954         0.182508         2.307516
 C        -3.716161         1.783065         1.999697
 C        -4.170428         1.846841         0.414870
 O        -3.500224         0.828433        -0.315136
 C        -2.583257         0.239158         0.555987
 H        -0.223650         0.200764        -1.001943
 H        -0.619779         2.528243         1.554087
 H        -1.655756         2.512756         0.146389
 H        -0.256634         0.625815         2.817916
 H        -1.234590        -0.917583         2.358338
 H        -4.411801         1.052283         2.432622
 H        -3.830185         2.714120         2.525683
 H        -5.231730         1.571197         0.282053
 H        -4.178727         2.821150         0.042176
 H        -2.830233        -0.812460         0.660845
