19
Iteration:  3948charge 0 multiplicity 1
 O         0.011139        -0.050673        -0.029700
 C        -1.044546         0.592239         0.584276
 C        -1.251214         2.104076         1.006438
 C        -2.337553         1.210808         1.792786
 C        -1.239432         0.267706         2.278299
 C        -3.862436         1.519094         2.040129
 C        -4.304431         1.816597         0.508130
 O        -3.343458         0.946103        -0.320525
 C        -2.510502         0.316438         0.531785
 H         0.112749         0.434610        -0.891197
 H        -0.555442         2.554856         1.682840
 H        -1.675027         2.883610         0.300886
 H        -0.412836         0.795835         2.902894
 H        -1.599628        -0.711380         2.539465
 H        -4.424524         0.725020         2.593729
 H        -4.047509         2.478356         2.521429
 H        -5.279886         1.539418         0.264180
 H        -3.967956         2.755857         0.284478
 H        -2.709080        -0.757866         0.640868
