19
Iteration:  1851charge 0 multiplicity 1
 O         0.228193         0.111110        -0.015835
 C        -0.962614         0.437494         0.682781
 C        -1.282188         1.951480         1.035936
 C        -2.450722         1.174823         1.661103
 C        -1.428470         0.169995         2.255374
 C        -3.694237         1.675321         2.127039
 C        -4.346825         1.832898         0.665580
 O        -3.426449         1.170302        -0.449842
 C        -2.509615         0.242849         0.373049
 H         0.115376        -0.853978        -0.275488
 H        -0.537583         2.246578         1.850278
 H        -1.455092         2.723737         0.279449
 H        -0.779576         0.489392         3.056061
 H        -2.028138        -0.794121         2.393500
 H        -4.171051         0.818379         2.603987
 H        -3.758414         2.664491         2.634552
 H        -5.311468         1.364632         0.657409
 H        -4.442553         2.868918         0.375159
 H        -2.834455        -0.880066         0.394010
