19
Iteration:  2046charge 0 multiplicity 1
 O         0.047810         0.003289        -0.110441
 C        -0.929102         0.484104         0.755733
 C        -1.327785         2.022125         0.923701
 C        -2.366200         1.189935         1.767346
 C        -1.148555         0.171675         2.241272
 C        -3.872177         1.621604         2.018146
 C        -4.275994         1.879064         0.516351
 O        -3.457353         1.036720        -0.279625
 C        -2.551311         0.280541         0.567318
 H         0.947682         0.417291        -0.050086
 H        -0.586070         2.651283         1.410481
 H        -1.769713         2.516298         0.035172
 H        -0.475609         0.533815         2.935076
 H        -1.429403        -0.861202         2.419306
 H        -4.375358         0.766540         2.507034
 H        -4.138908         2.540501         2.657577
 H        -5.341425         1.747887         0.126577
 H        -4.077213         2.923729         0.241414
 H        -3.028588        -0.712825         0.617178
