19
Iteration:   991
 O         0.174275         0.149831        -0.060459
 C        -1.038376         0.521472         0.716673
 C        -1.193842         1.969469         1.038883
 C        -2.411732         1.126290         1.766153
 C        -1.440831         0.072298         2.370621
 C        -3.722755         1.856716         1.968278
 C        -4.391354         1.626952         0.580780
 O        -3.339434         1.143193        -0.432538
 C        -2.561209         0.305078         0.405226
 H         0.008176        -0.721063        -0.398709
 H        -0.496036         2.306141         1.858032
 H        -1.455030         2.755453         0.408396
 H        -0.616625         0.341202         3.098314
 H        -1.671503        -1.038814         2.501336
 H        -4.248662         1.533292         2.877698
 H        -3.475917         2.937279         2.167598
 H        -5.087275         0.774167         0.676241
 H        -4.924984         2.462084         0.155833
 H        -2.742498        -0.807653         0.512644
