19
Iteration:  3562charge 0 multiplicity 1
 O         0.148633         0.022065        -0.058561
 C        -0.934410         0.578977         0.655153
 C        -1.461984         2.052056         1.021055
 C        -2.463521         1.072640         1.773194
 C        -1.143668         0.317624         2.219973
 C        -3.866583         1.699591         2.043676
 C        -4.166783         1.891784         0.504310
 O        -3.474298         0.879428        -0.245306
 C        -2.546935         0.177991         0.531470
 H         0.114989         0.256918        -1.026770
 H        -0.918902         2.546362         1.840123
 H        -1.814302         2.610966         0.119332
 H        -0.330870         0.807472         2.691965
 H        -1.140301        -0.820978         2.228037
 H        -4.523901         0.933405         2.509749
 H        -3.899117         2.685507         2.581860
 H        -5.202520         1.976661         0.054589
 H        -3.797731         2.988561         0.387550
 H        -2.749691        -0.950304         0.634029
