19
Iteration:  1829charge 0 multiplicity 1
 O         0.099952         0.142113        -0.014736
 C        -1.028686         0.533679         0.694799
 C        -1.244570         1.948796         1.061435
 C        -2.446516         1.034633         1.800192
 C        -1.243851         0.025458         2.149919
 C        -3.753646         1.675957         1.976701
 C        -4.266957         1.848284         0.525923
 O        -3.436601         1.131933        -0.329106
 C        -2.585882         0.373229         0.461208
 H         0.368754        -0.622070         0.496917
 H        -0.540270         2.554097         1.720748
 H        -1.640090         2.493954         0.216001
 H        -0.496296         0.453447         2.793002
 H        -1.493536        -1.071781         2.318478
 H        -4.461829         1.072879         2.535046
 H        -3.642682         2.721342         2.362897
 H        -5.312317         1.583745         0.442633
 H        -4.143190         2.856168         0.156778
 H        -2.890718        -0.742789         0.549735
