19
Iteration:  3819charge 0 multiplicity 1
 O        -0.050636        -0.139647        -0.040335
 C        -0.955528         0.587112         0.667523
 C        -1.240220         2.162411         1.017362
 C        -2.325195         1.206301         1.786363
 C        -1.232210         0.316164         2.217076
 C        -3.770607         1.512334         2.001909
 C        -4.313974         1.696394         0.595796
 O        -3.482582         1.004532        -0.399448
 C        -2.484433         0.439097         0.450640
 H         0.803822         0.077505         0.391151
 H        -0.537695         2.557917         1.727295
 H        -1.674579         2.960924         0.341265
 H        -0.517788         0.735165         2.992661
 H        -1.457508        -0.710226         2.362539
 H        -4.211098         0.568046         2.417673
 H        -4.127451         2.320496         2.632257
 H        -5.355276         1.412794         0.428728
 H        -4.368105         2.825614         0.461786
 H        -2.640770        -0.671535         0.567457
