19
Iteration:  4453charge 0 multiplicity 1
 O         0.191534         0.053219         0.003058
 C        -0.959643         0.618958         0.655136
 C        -1.325033         1.987402         0.954902
 C        -2.448542         1.095213         1.683221
 C        -1.265622         0.334280         2.263957
 C        -3.813777         1.567462         1.974028
 C        -4.294195         1.911550         0.584723
 O        -3.533042         0.906348        -0.328198
 C        -2.532838         0.165956         0.544288
 H         0.843065         0.775906        -0.154745
 H        -0.632887         2.514718         1.605480
 H        -1.673432         2.742662         0.139376
 H        -0.708918         0.825586         3.066778
 H        -1.436373        -0.800774         2.595434
 H        -4.163645         0.800111         2.669361
 H        -3.717979         2.599523         2.444757
 H        -5.265425         1.956107         0.062959
 H        -3.844780         2.903363         0.328338
 H        -2.745991        -0.895584         0.655860
