19
Iteration:   745
 O         0.006797        -0.130415        -0.086602
 C        -0.934534         0.547232         0.733457
 C        -1.133366         2.037245         1.049858
 C        -2.398314         1.195190         1.714091
 C        -1.411969         0.273216         2.394122
 C        -3.782662         1.705731         1.970456
 C        -4.395786         1.542294         0.539378
 O        -3.369744         1.151622        -0.380947
 C        -2.443997         0.395681         0.397367
 H         0.889137         0.197349        -0.007155
 H        -0.627966         2.529330         1.897161
 H        -1.570546         2.609940         0.258924
 H        -0.943300         0.984502         3.179808
 H        -1.698196        -0.754948         2.650135
 H        -4.219291         1.154166         2.768567
 H        -3.745333         2.774890         2.050983
 H        -5.243887         0.887835         0.726638
 H        -4.747423         2.541142         0.261160
 H        -2.755862        -0.668932         0.237811
