19
Iteration:   681
 O         0.070480        -0.026241         0.012983
 C        -0.881746         0.522055         0.766092
 C        -1.309972         1.990622         1.102854
 C        -2.439103         1.094141         1.735524
 C        -1.318233         0.203222         2.294003
 C        -3.646199         1.870948         1.883899
 C        -4.377336         1.614883         0.575930
 O        -3.396150         1.123150        -0.373990
 C        -2.542837         0.263554         0.392104
 H         0.094006         0.599760        -0.703273
 H        -0.848951         2.485336         1.977650
 H        -1.512004         2.724204         0.313167
 H        -0.795387         0.779553         3.126919
 H        -1.553360        -0.848617         2.494561
 H        -4.170153         1.543279         2.799448
 H        -3.529855         2.945558         1.867469
 H        -5.109931         0.811513         0.568039
 H        -4.834404         2.447155         0.053800
 H        -2.817978        -0.799639         0.410918
