19
Iteration:    38
 O         0.108497        -0.146099         0.065058
 C        -0.991954         0.528214         0.651866
 C        -1.225445         2.046345         1.000032
 C        -2.363996         1.265566         1.737221
 C        -1.259923         0.259850         2.206195
 C        -3.877252         1.761898         1.944981
 C        -4.417683         1.571161         0.574086
 O        -3.376647         1.099043        -0.308010
 C        -2.490843         0.372451         0.502571
 H         0.475675         0.425315        -0.666766
 H        -0.377707         2.407754         1.662921
 H        -1.502534         2.744412         0.130061
 H        -0.455892         0.652037         2.893485
 H        -1.674888        -0.817026         2.358136
 H        -4.321175         1.072696         2.666971
 H        -3.917107         2.824899         2.314285
 H        -5.316451         0.906705         0.526396
 H        -4.694192         2.507922         0.117861
 H        -2.876112        -0.683496         0.621665
