19
Iteration:  3710
 O         0.135872         0.041923        -0.017611
 C        -0.993867         0.520530         0.697327
 C        -1.171331         1.958764         1.092103
 C        -2.380754         1.253315         1.719866
 C        -1.247188         0.165566         2.160272
 C        -3.785640         1.822378         2.078683
 C        -4.430988         1.604864         0.553568
 O        -3.485006         1.004726        -0.396267
 C        -2.561355         0.337039         0.460622
 H         0.696703         0.731081        -0.439023
 H        -0.357456         2.255215         1.726778
 H        -1.249012         2.783810         0.338299
 H        -0.567569         0.583805         2.944603
 H        -1.477917        -0.805976         2.386884
 H        -4.223224         1.266830         2.919219
 H        -3.820589         2.877538         2.298232
 H        -5.173381         0.762152         0.591536
 H        -4.960201         2.488066         0.117104
 H        -2.909263        -0.684333         0.720895
