19
Iteration:   868
 O         0.137807         0.080261        -0.045277
 C        -0.964180         0.431638         0.703255
 C        -1.364339         1.974952         1.038581
 C        -2.417279         1.197471         1.790580
 C        -1.194084         0.141288         2.170592
 C        -3.863928         1.718683         1.891751
 C        -4.186634         1.909822         0.418506
 O        -3.481602         0.952133        -0.319734
 C        -2.579266         0.227996         0.714024
 H         0.664958         0.841540         0.073561
 H        -0.642014         2.482170         1.692967
 H        -1.669143         2.727944         0.222135
 H        -0.376610         0.434482         2.872648
 H        -1.406476        -1.021599         2.356310
 H        -4.596283         1.018789         2.358798
 H        -3.881033         2.682361         2.369916
 H        -5.274261         1.876011         0.325795
 H        -3.997810         3.012635         0.223102
 H        -2.964820        -0.847719         0.752461
