19
Iteration:  2759
 O         0.036282        -0.002714         0.011872
 C        -1.024481         0.544150         0.680825
 C        -1.249664         2.012072         0.892644
 C        -2.348918         1.154807         1.717399
 C        -1.148666         0.291423         2.181735
 C        -3.771610         1.638141         2.014836
 C        -4.439441         1.759784         0.604016
 O        -3.419935         1.000484        -0.324840
 C        -2.550907         0.270493         0.527586
 H         0.760529         0.639526        -0.123236
 H        -0.527869         2.531137         1.616318
 H        -1.718722         2.494332        -0.023064
 H        -0.393078         0.864309         2.766930
 H        -1.362177        -0.619825         2.661974
 H        -4.235716         0.971715         2.787750
 H        -3.660613         2.618620         2.520260
 H        -5.520495         1.358614         0.548812
 H        -4.384670         2.850630         0.362258
 H        -2.897238        -0.775267         0.593488
