19
Iteration:  4176
 O         0.247119         0.059449         0.015933
 C        -0.973023         0.481999         0.690986
 C        -1.520954         1.985627         1.010275
 C        -2.466209         1.018740         1.733521
 C        -1.128443         0.280540         2.219525
 C        -3.832075         1.724478         2.046621
 C        -4.240192         1.969439         0.497011
 O        -3.418832         0.970083        -0.300627
 C        -2.647228         0.156944         0.463302
 H         0.477164         0.509655        -0.814382
 H        -0.735946         2.293098         1.680870
 H        -1.864718         2.784340         0.288791
 H        -0.359445         0.675433         2.932343
 H        -1.212267        -0.679797         2.681416
 H        -4.485072         0.898238         2.373721
 H        -3.749023         2.698123         2.496822
 H        -5.333298         1.817122         0.395610
 H        -3.829725         2.973504         0.252911
 H        -2.941693        -0.907320         0.471756
