19
Iteration:  4174
 O         0.257624         0.062396         0.029790
 C        -0.977995         0.489096         0.699838
 C        -1.523605         1.979174         1.000688
 C        -2.474033         1.036189         1.722483
 C        -1.128919         0.269154         2.205639
 C        -3.801324         1.713842         2.033270
 C        -4.237330         1.949491         0.503883
 O        -3.426452         0.982784        -0.288394
 C        -2.651760         0.150744         0.460154
 H         0.377241         0.503705        -0.808571
 H        -0.781905         2.280657         1.707429
 H        -1.852940         2.828563         0.279866
 H        -0.365195         0.658656         2.933697
 H        -1.271405        -0.644380         2.678443
 H        -4.463843         0.906405         2.428823
 H        -3.743338         2.686934         2.442555
 H        -5.329858         1.862971         0.357430
 H        -3.859564         2.977383         0.265532
 H        -2.945831        -0.888511         0.480970
