19
Iteration:  1173charge 0 multiplicity 1
 O         0.021209         0.217405        -0.205465
 C        -1.034360         0.460245         0.759104
 C        -1.281248         1.919035         1.184457
 C        -2.359705         1.089146         1.815302
 C        -1.266562         0.140135         2.243048
 C        -3.906803         1.720516         1.926629
 C        -4.082546         1.888346         0.428736
 O        -3.342250         1.012497        -0.329232
 C        -2.628403         0.269510         0.595219
 H         0.171770        -0.774352        -0.333892
 H        -0.551226         2.381443         2.002273
 H        -1.542939         2.659677         0.459712
 H        -0.452333         0.482724         2.847898
 H        -1.515318        -0.903419         2.406720
 H        -4.586790         0.987174         2.525251
 H        -4.005885         2.782901         2.279631
 H        -5.176113         1.644240         0.288609
 H        -3.940471         2.991449         0.081952
 H        -3.025520        -0.810968         0.699461
