19
Iteration:   651charge 0 multiplicity 1
 O         0.147239        -0.003977         0.062760
 C        -0.990427         0.521614         0.703855
 C        -1.248253         2.000048         0.957518
 C        -2.332318         1.228724         1.821976
 C        -1.324104         0.215463         2.227903
 C        -3.828321         1.723260         2.031389
 C        -4.368806         1.705171         0.526682
 O        -3.349266         1.080691        -0.379694
 C        -2.548961         0.345392         0.492081
 H        -0.014731        -0.490423        -0.816498
 H        -0.510474         2.398960         1.657191
 H        -1.571024         2.629394         0.049901
 H        -0.579207         0.509350         2.955573
 H        -1.699517        -0.825652         2.423507
 H        -4.355769         0.879620         2.611320
 H        -4.029965         2.803345         2.321009
 H        -5.253778         0.959697         0.270622
 H        -4.587117         2.692834         0.064777
 H        -2.940465        -0.696316         0.540663
