19
Iteration:  3634
 O         0.060613        -0.003519        -0.104744
 C        -0.917602         0.629515         0.715582
 C        -1.227964         2.040254         1.074260
 C        -2.397058         1.164100         1.788634
 C        -1.184514         0.234996         2.263471
 C        -3.794965         1.690149         2.025556
 C        -4.391558         1.649311         0.508082
 O        -3.436853         1.031416        -0.384702
 C        -2.482447         0.315958         0.526543
 H        -0.390876        -0.346524        -0.906998
 H        -0.662928         2.600608         1.803223
 H        -1.714247         2.698951         0.338091
 H        -0.590843         0.823716         3.013866
 H        -1.557319        -0.667534         2.645927
 H        -4.257338         0.822618         2.503451
 H        -3.977497         2.577409         2.602022
 H        -5.462024         1.385257         0.498660
 H        -4.409491         2.657518         0.101498
 H        -2.674544        -0.732952         0.539778
