19
Iteration:  4959charge 0 multiplicity 1
 O         0.223792         0.079534         0.078887
 C        -0.891421         0.597836         0.681989
 C        -1.282017         2.014354         1.046761
 C        -2.398418         1.080945         1.738994
 C        -1.242755         0.163800         2.199242
 C        -3.741374         1.727887         1.969490
 C        -4.409307         1.756639         0.563317
 O        -3.497546         0.996639        -0.365201
 C        -2.636464         0.285086         0.443375
 H         0.578454         0.683979        -0.601030
 H        -0.587461         2.541556         1.787138
 H        -1.703786         2.634525         0.159788
 H        -0.587848         0.313001         3.073181
 H        -1.551733        -0.833224         2.397975
 H        -4.410819         1.072419         2.593287
 H        -3.729358         2.694966         2.484654
 H        -5.333990         1.182001         0.459294
 H        -4.643757         2.716544         0.080101
 H        -2.903105        -0.788355         0.566545
