19
Iteration:  4009charge 0 multiplicity 1
 O         0.292646        -0.018500         0.109881
 C        -0.968014         0.502325         0.601743
 C        -1.318153         2.035745         1.050488
 C        -2.382416         1.221083         1.700826
 C        -1.330042         0.184841         2.086729
 C        -3.744590         1.801552         2.062184
 C        -4.362903         1.656918         0.647611
 O        -3.493633         1.013516        -0.344058
 C        -2.535448         0.322202         0.441782
 H         0.297141         0.297453        -0.838220
 H        -0.714209         2.455669         1.884297
 H        -1.697260         2.780672         0.353609
 H        -0.565557         0.402283         2.794265
 H        -1.612021        -0.856921         2.310188
 H        -4.396402         1.295825         2.772313
 H        -3.796301         2.877140         2.258538
 H        -5.385771         1.161176         0.652563
 H        -4.715318         2.643636         0.183449
 H        -2.968394        -0.720463         0.419628
