19
Iteration:  4198
 O         0.044490         0.035771        -0.058212
 C        -0.996261         0.572371         0.763300
 C        -1.345653         1.977814         0.968966
 C        -2.470728         1.107254         1.828088
 C        -1.191654         0.212108         2.233308
 C        -3.850281         1.610752         1.986045
 C        -4.158049         1.889649         0.474915
 O        -3.454432         0.955399        -0.339398
 C        -2.464526         0.279510         0.548077
 H         0.314310         0.860023        -0.520419
 H        -0.769060         2.607837         1.644262
 H        -1.779651         2.485078         0.087295
 H        -0.472198         0.619678         2.971278
 H        -1.314490        -0.746046         2.660571
 H        -4.555675         0.848284         2.366278
 H        -3.856860         2.602942         2.404497
 H        -5.238479         1.835452         0.233253
 H        -3.823259         2.962601         0.326626
 H        -2.701084        -0.782156         0.692936
