19
Iteration:  3764charge 0 multiplicity 1
 O        -0.004756         0.105516        -0.142134
 C        -1.006926         0.493704         0.711232
 C        -1.256230         1.942428         1.047842
 C        -2.398795         1.109329         1.831982
 C        -1.253091         0.193010         2.297569
 C        -3.709672         1.840640         2.058158
 C        -4.395971         1.626813         0.473379
 O        -3.316704         1.089200        -0.394393
 C        -2.581871         0.226095         0.525238
 H         0.563790         0.877946        -0.401560
 H        -0.614937         2.455176         1.739378
 H        -1.554596         2.588945         0.191004
 H        -0.447618         0.764866         2.837421
 H        -1.493348        -0.670209         2.795211
 H        -4.351870         1.362810         2.838488
 H        -3.616504         2.878009         2.328897
 H        -4.980601         0.746837         0.595304
 H        -4.822482         2.532609        -0.005872
 H        -2.788442        -0.883227         0.452942
