19
Iteration:  4312
 O         0.142419         0.080516        -0.026605
 C        -0.909184         0.517080         0.754007
 C        -1.141709         1.919557         1.039588
 C        -2.405669         1.219739         1.710952
 C        -1.321714         0.216388         2.199663
 C        -3.753044         1.727833         1.950494
 C        -4.447469         1.551230         0.582805
 O        -3.479324         1.129014        -0.371706
 C        -2.500121         0.438064         0.439751
 H         0.482381        -0.666372         0.517603
 H        -0.590344         2.591305         1.663104
 H        -1.502383         2.481534         0.157969
 H        -0.698336         0.518150         2.973948
 H        -1.635228        -0.842219         2.489594
 H        -4.237008         1.043277         2.607746
 H        -3.816702         2.790200         2.262817
 H        -5.276716         0.803428         0.792522
 H        -5.082957         2.382924         0.282643
 H        -2.977550        -0.564832         0.624491
