19
Iteration:  1014charge 0 multiplicity 1
 O         0.045515         0.155441        -0.116668
 C        -0.988533         0.450528         0.748165
 C        -1.233312         1.916813         1.168655
 C        -2.363706         1.211691         1.798198
 C        -1.261866         0.027401         2.161926
 C        -3.843968         1.885768         1.898603
 C        -4.313051         1.607514         0.488421
 O        -3.330003         1.123820        -0.312030
 C        -2.557185         0.374206         0.502224
 H         0.194835        -0.836022         0.091539
 H        -0.665409         2.445851         1.948394
 H        -1.568226         2.642425         0.455693
 H        -0.629183         0.368959         3.034252
 H        -1.553964        -1.034014         2.302763
 H        -4.451686         1.551554         2.752971
 H        -3.741385         3.020737         2.030395
 H        -5.129195         0.862011         0.449853
 H        -4.662156         2.468312        -0.024897
 H        -2.974898        -0.677366         0.754118
