19
Iteration:   372
 O         0.108819         0.040373        -0.052098
 C        -0.987459         0.506732         0.717610
 C        -1.346415         1.994623         1.044142
 C        -2.464535         1.106377         1.766836
 C        -1.377360         0.152136         2.270405
 C        -3.744573         1.873044         2.003567
 C        -4.269377         1.631881         0.575125
 O        -3.298866         1.163974        -0.382224
 C        -2.477307         0.287500         0.449860
 H         0.144483        -0.890825        -0.226314
 H        -0.754366         2.686099         1.572510
 H        -1.727956         2.599735         0.204425
 H        -0.816569         0.611030         3.036237
 H        -1.715332        -0.857546         2.499223
 H        -4.479053         1.449191         2.643560
 H        -3.440580         2.858774         2.373587
 H        -4.990754         0.813400         0.654100
 H        -4.739697         2.514033         0.048982
 H        -2.904520        -0.716192         0.346945
