19
Iteration:  1340charge 0 multiplicity 1
 O        -0.124459         0.039102        -0.224003
 C        -1.058997         0.497653         0.754581
 C        -1.202501         2.059087         1.212431
 C        -2.355491         1.156285         1.805006
 C        -1.389106         0.145506         2.295475
 C        -3.755597         1.695472         1.969267
 C        -4.334932         1.610186         0.586878
 O        -3.203596         1.140432        -0.463722
 C        -2.473343         0.410303         0.463694
 H         0.531910        -0.521591         0.295412
 H        -0.540829         2.545149         1.943808
 H        -1.513945         2.748289         0.317673
 H        -0.626208         0.415578         3.041928
 H        -1.775970        -0.858460         2.391416
 H        -4.337746         1.070420         2.738825
 H        -3.645939         2.755764         2.120678
 H        -5.149525         1.009392         0.386373
 H        -4.393570         2.589758         0.059733
 H        -2.938439        -0.557271         0.784119
