19
Iteration:  3833
 O         0.103555        -0.105221        -0.087907
 C        -1.004993         0.606753         0.629178
 C        -1.318192         2.151410         1.104352
 C        -2.379586         1.315787         1.686547
 C        -1.191669         0.300979         2.187710
 C        -3.823354         1.499250         2.051532
 C        -4.322109         1.803410         0.562735
 O        -3.474569         1.018103        -0.334284
 C        -2.520891         0.218800         0.472793
 H         0.850341        -0.293705         0.531801
 H        -0.589942         2.528330         1.855135
 H        -1.466233         2.854598         0.271780
 H        -0.406844         0.724665         2.745991
 H        -1.647012        -0.667961         2.494988
 H        -4.227814         0.645261         2.577788
 H        -3.969535         2.416523         2.680967
 H        -5.373452         1.418796         0.500281
 H        -4.025747         2.779052         0.221265
 H        -2.961431        -0.811628         0.661925
