19
Iteration:  2783charge 0 multiplicity 1
 O         0.115144        -0.147933         0.030925
 C        -0.967912         0.527507         0.611281
 C        -1.321855         2.093139         0.925711
 C        -2.331396         1.224592         1.731068
 C        -1.252578         0.318311         2.148105
 C        -3.810566         1.678787         2.117068
 C        -4.383878         1.630305         0.614127
 O        -3.387114         1.097055        -0.348469
 C        -2.484715         0.354301         0.520767
 H         0.379337         0.312239        -0.770444
 H        -0.621187         2.711444         1.493620
 H        -1.934034         2.484496         0.131167
 H        -0.461110         0.640091         2.870081
 H        -1.601656        -0.645032         2.413695
 H        -4.273196         0.918602         2.682897
 H        -3.991268         2.610111         2.671367
 H        -5.246375         0.880120         0.801755
 H        -4.783402         2.557460         0.209973
 H        -2.950994        -0.623285         0.695153
