19
Iteration:  4602
 O         0.160088        -0.018092         0.023497
 C        -0.915536         0.512499         0.721170
 C        -1.223422         2.007929         1.039784
 C        -2.425683         1.232846         1.643523
 C        -1.204680         0.233562         2.226788
 C        -3.853136         1.724001         2.042584
 C        -4.545257         1.531653         0.650629
 O        -3.417311         1.121895        -0.404920
 C        -2.518574         0.365529         0.359938
 H         1.024494         0.421182         0.193917
 H        -0.447960         2.480645         1.728624
 H        -1.581147         2.653342         0.207823
 H        -0.662084         0.720616         3.038271
 H        -1.492435        -0.804976         2.558931
 H        -4.288920         1.182112         2.933748
 H        -3.728221         2.857548         2.182646
 H        -5.333118         0.721391         0.568580
 H        -4.793899         2.484808         0.124089
 H        -2.825220        -0.717066         0.482442
