19
Iteration:  2819charge 0 multiplicity 1
 O         0.004384         0.032331        -0.095298
 C        -0.961210         0.540928         0.674948
 C        -1.129631         2.008329         1.068447
 C        -2.383576         1.264424         1.747398
 C        -1.254938         0.290680         2.216308
 C        -3.760532         1.770636         1.958401
 C        -4.391991         1.484788         0.584925
 O        -3.431827         1.120502        -0.292664
 C        -2.481187         0.299016         0.480057
 H        -0.204262        -0.772111        -0.567878
 H        -0.459371         2.532029         1.667244
 H        -1.440983         2.790327         0.429481
 H        -0.571642         0.689741         2.937411
 H        -1.725727        -0.676699         2.611316
 H        -4.323066         1.108440         2.585016
 H        -3.679915         2.786726         2.304818
 H        -5.121556         0.558771         0.678875
 H        -4.963136         2.323647         0.183769
 H        -2.788459        -0.724659         0.743898
