19
Iteration:  3096charge 0 multiplicity 1
 O         0.001528        -0.052388        -0.185277
 C        -0.959810         0.496598         0.736624
 C        -1.265424         1.967923         0.950599
 C        -2.331607         1.244606         1.787668
 C        -1.312205         0.338337         2.337113
 C        -3.765727         1.515299         2.050367
 C        -4.379891         1.763777         0.525515
 O        -3.354384         1.110175        -0.333862
 C        -2.513057         0.334294         0.541135
 H         0.809782         0.520141        -0.190112
 H        -0.617899         2.577675         1.557477
 H        -1.733126         2.532282         0.181717
 H        -0.443455         0.623054         2.828274
 H        -1.601824        -0.604084         2.718623
 H        -4.281310         0.675898         2.447541
 H        -3.940191         2.414424         2.527475
 H        -5.341345         1.195827         0.354002
 H        -4.412375         2.794774         0.082540
 H        -2.938235        -0.629303         0.782849
