19
Iteration:  1319charge 0 multiplicity 1
 O        -0.041181         0.067380        -0.242030
 C        -0.988111         0.515253         0.745087
 C        -1.252857         1.923334         1.170675
 C        -2.468636         1.182354         1.834555
 C        -1.281540         0.061361         2.246438
 C        -3.836384         1.832602         1.984065
 C        -4.346183         1.694251         0.414572
 O        -3.244718         1.166596        -0.315229
 C        -2.487765         0.323350         0.548500
 H         0.749531        -0.230898         0.174010
 H        -0.417650         2.213404         1.800520
 H        -1.390676         2.655487         0.278614
 H        -0.649434         0.508699         3.027477
 H        -1.698642        -0.911612         2.534704
 H        -4.335921         1.132121         2.664301
 H        -3.651876         2.828746         2.327671
 H        -5.015221         0.864582         0.549941
 H        -4.787607         2.582195        -0.180544
 H        -2.771490        -0.809552         0.541560
