19
Iteration:  2481charge 0 multiplicity 1
 O         0.101934        -0.017659        -0.111876
 C        -0.932177         0.480696         0.720685
 C        -1.309789         1.994330         0.837793
 C        -2.354085         1.220373         1.766046
 C        -1.206518         0.262217         2.244480
 C        -3.850457         1.587915         2.100719
 C        -4.385052         1.747924         0.659719
 O        -3.448874         1.061563        -0.407063
 C        -2.487587         0.368475         0.511469
 H         0.922907        -0.067177         0.425291
 H        -0.495365         2.663474         1.277008
 H        -1.825844         2.458869        -0.043275
 H        -0.558008         0.789737         2.871477
 H        -1.365040        -0.727173         2.611008
 H        -4.408816         0.955858         2.788425
 H        -3.936576         2.563960         2.669256
 H        -5.467813         1.437203         0.583019
 H        -4.458882         2.856351         0.433568
 H        -3.024967        -0.623107         0.721352
