19
Iteration:  1450
 O         0.111890         0.104097        -0.041738
 C        -0.950772         0.481938         0.689558
 C        -1.238188         1.962301         1.238049
 C        -2.418380         1.086869         1.819821
 C        -1.240011        -0.007445         2.132521
 C        -3.835879         1.746911         1.899789
 C        -4.252831         1.942890         0.509345
 O        -3.413310         1.047465        -0.392064
 C        -2.583303         0.344722         0.525262
 H        -0.112215        -0.392822        -0.821700
 H        -0.578140         2.466881         1.982324
 H        -1.672021         2.827451         0.684394
 H        -0.563491         0.382252         2.830378
 H        -1.588348        -0.958606         2.524464
 H        -4.573118         0.987641         2.399112
 H        -3.927133         2.680945         2.461887
 H        -5.223841         1.537219         0.500568
 H        -4.292284         2.954762         0.073685
 H        -2.885451        -0.650401         0.667155
