19
Iteration:   956
 O         0.197656        -0.004939         0.059007
 C        -0.973479         0.487292         0.732905
 C        -1.181719         2.048000         0.996168
 C        -2.368793         1.207464         1.698392
 C        -1.345850         0.144534         2.215178
 C        -3.819858         1.716638         1.998255
 C        -4.487409         1.640314         0.565808
 O        -3.337781         1.188247        -0.350091
 C        -2.541427         0.365144         0.469066
 H        -0.301179        -0.512402        -0.545087
 H        -0.553855         2.417131         1.865861
 H        -1.440931         2.741762         0.184427
 H        -0.540699         0.509365         2.878025
 H        -1.621636        -1.016959         2.254786
 H        -4.237492         1.064645         2.784528
 H        -3.715547         2.749256         2.291737
 H        -5.211554         0.817948         0.479000
 H        -4.886707         2.601440         0.102569
 H        -3.093390        -0.650878         0.392285
