19
Iteration:   445charge 0 multiplicity 1
 O         0.086917        -0.027615        -0.054936
 C        -0.909985         0.580452         0.763870
 C        -1.260807         2.058328         1.075132
 C        -2.405237         1.147861         1.707663
 C        -1.426852         0.170224         2.312091
 C        -3.746850         1.677641         1.963607
 C        -4.301346         1.705173         0.529480
 O        -3.392722         1.115446        -0.380634
 C        -2.453555         0.344087         0.448171
 H        -0.166695        -0.824265        -0.538658
 H        -0.648581         2.717571         1.768582
 H        -1.495903         2.705964         0.216928
 H        -0.719617         0.731934         2.971377
 H        -1.756035        -0.923326         2.560681
 H        -4.310894         1.092740         2.733880
 H        -3.723855         2.695163         2.363034
 H        -5.268834         1.107594         0.597185
 H        -4.583755         2.749348         0.290554
 H        -2.847812        -0.702179         0.537547
