19
Iteration:   674
 O         0.096936        -0.025595         0.001239
 C        -0.944521         0.528380         0.831363
 C        -1.304264         2.007329         1.107217
 C        -2.419665         1.073493         1.633785
 C        -1.350440         0.226815         2.304329
 C        -3.662429         1.871822         1.953421
 C        -4.366318         1.609260         0.569422
 O        -3.407174         1.117699        -0.420906
 C        -2.489252         0.277465         0.416869
 H         0.020420         0.360647        -0.854783
 H        -0.702799         2.342503         1.956186
 H        -1.551873         2.680718         0.208829
 H        -0.780234         0.857223         2.933897
 H        -1.417827        -0.830816         2.668156
 H        -4.347177         1.339513         2.708553
 H        -3.381367         2.958992         2.165101
 H        -5.245744         0.795966         0.633302
 H        -4.750176         2.583951         0.187733
 H        -2.910466        -0.743036         0.446370
