19
Iteration:  1232
 O         0.157524        -0.034333         0.107389
 C        -0.992784         0.516126         0.635182
 C        -1.155821         1.981578         1.031146
 C        -2.391719         1.158118         1.728468
 C        -1.251421         0.136145         2.143071
 C        -3.890613         1.587416         2.052803
 C        -4.419745         1.886525         0.555057
 O        -3.365771         1.175841        -0.369689
 C        -2.558289         0.377185         0.478758
 H         0.024368        -0.647190        -0.630042
 H        -0.435015         2.342130         1.729887
 H        -1.632500         2.623907         0.186261
 H        -0.443142         0.688082         2.710601
 H        -1.597721        -0.861202         2.526766
 H        -4.307040         0.807685         2.614378
 H        -4.046738         2.388805         2.731701
 H        -5.413265         1.365995         0.227330
 H        -4.477624         2.975907         0.175055
 H        -2.885838        -0.700959         0.570425
