19
Iteration:  4639
 O         0.074408         0.028533         0.032429
 C        -0.931548         0.553570         0.749632
 C        -1.230314         2.007537         1.043902
 C        -2.350551         1.242821         1.674493
 C        -1.301864         0.147692         2.205297
 C        -3.801693         1.806507         2.068602
 C        -4.448508         1.518697         0.605759
 O        -3.343840         1.054362        -0.413454
 C        -2.520142         0.359931         0.410233
 H         0.555664         0.787891        -0.311863
 H        -0.462688         2.569180         1.629427
 H        -1.547113         2.608908         0.084869
 H        -0.626550         0.544855         2.942480
 H        -1.686349        -0.858556         2.282440
 H        -4.313026         1.163108         2.764595
 H        -4.049381         2.852495         2.428218
 H        -5.206612         0.726858         0.715866
 H        -4.991209         2.314981         0.151930
 H        -2.818941        -0.720638         0.448952
