19
Iteration:  2224charge 0 multiplicity 1
 O        -0.030769         0.033133        -0.235209
 C        -1.022038         0.556221         0.723185
 C        -1.270458         1.978481         1.069034
 C        -2.402218         1.188830         1.752165
 C        -1.350869         0.218056         2.297729
 C        -3.678364         1.863574         2.072691
 C        -4.339762         1.594247         0.507986
 O        -3.284768         0.985547        -0.347914
 C        -2.516021         0.278084         0.571534
 H         0.657858         0.746086        -0.339450
 H        -0.504962         2.503133         1.697988
 H        -1.657515         2.577131         0.225880
 H        -0.656890         0.684570         2.967323
 H        -1.623407        -0.769139         2.641946
 H        -4.184188         1.251041         2.920201
 H        -3.701962         2.915590         2.344865
 H        -5.325403         0.976490         0.507868
 H        -4.658022         2.478195        -0.061055
 H        -2.818148        -0.840154         0.622318
