19
Iteration:  1826
 O         0.091813         0.137505        -0.027906
 C        -1.027741         0.522480         0.712844
 C        -1.273819         1.955700         1.070725
 C        -2.452722         1.044898         1.820677
 C        -1.206963         0.013247         2.123272
 C        -3.766925         1.697010         1.961812
 C        -4.272856         1.862687         0.500764
 O        -3.439623         1.138107        -0.327062
 C        -2.555314         0.330107         0.495634
 H         0.437154        -0.626063         0.531779
 H        -0.544635         2.501078         1.692941
 H        -1.636656         2.554998         0.243978
 H        -0.449853         0.321628         2.813915
 H        -1.449713        -0.976708         2.254208
 H        -4.480755         1.070069         2.522211
 H        -3.782247         2.776386         2.349846
 H        -5.374363         1.633676         0.449247
 H        -4.133297         2.923088         0.230440
 H        -2.824719        -0.738298         0.494980
