19
Iteration:  4749
 O         0.200354         0.204122        -0.001327
 C        -0.985359         0.566313         0.720557
 C        -1.284039         2.015919         0.932032
 C        -2.439102         1.140264         1.756628
 C        -1.267149         0.197836         2.288782
 C        -3.828663         1.550292         2.013224
 C        -4.249497         1.845845         0.483131
 O        -3.521683         0.984671        -0.348516
 C        -2.584146         0.234262         0.513633
 H         0.392971        -0.752173         0.148733
 H        -0.442653         2.599509         1.456554
 H        -1.669206         2.516618         0.015433
 H        -0.435848         0.653422         2.904605
 H        -1.260113        -0.794286         2.598260
 H        -4.434348         0.780127         2.537638
 H        -4.007603         2.396697         2.680220
 H        -5.330627         1.997466         0.258304
 H        -3.795404         2.811299         0.244290
 H        -2.704045        -0.875482         0.392898
