19
Iteration:  3558
 O         0.149994        -0.007829        -0.056938
 C        -0.970188         0.619123         0.663815
 C        -1.446190         2.038435         0.985619
 C        -2.448172         1.109815         1.799331
 C        -1.193402         0.326544         2.209079
 C        -3.858850         1.644180         2.078633
 C        -4.134893         1.900252         0.485119
 O        -3.471959         0.879733        -0.231265
 C        -2.547673         0.214534         0.499311
 H         0.207300         0.267677        -0.971651
 H        -0.882631         2.584518         1.714208
 H        -1.837297         2.625984         0.169502
 H        -0.287957         0.769683         2.801845
 H        -1.099366        -0.768805         2.283885
 H        -4.556580         0.904086         2.455986
 H        -3.920923         2.560392         2.629167
 H        -5.207018         1.818757         0.238161
 H        -3.776894         2.851581         0.229111
 H        -2.775216        -0.851075         0.554365
