19
Iteration:   211
 O         0.108266         0.042755        -0.025702
 C        -0.935221         0.572246         0.657089
 C        -1.339612         2.019388         1.067442
 C        -2.439626         1.221614         1.717189
 C        -1.431665         0.248184         2.247935
 C        -3.744545         1.647662         2.047971
 C        -4.140697         1.880518         0.480556
 O        -3.486560         0.852649        -0.316608
 C        -2.450524         0.307252         0.457283
 H         0.010128        -0.835193        -0.432050
 H        -0.663668         2.613841         1.728233
 H        -1.645572         2.696498         0.180893
 H        -0.721357         0.488012         3.054105
 H        -1.797330        -0.779062         2.554666
 H        -4.357473         0.995800         2.630351
 H        -3.928028         2.656982         2.583004
 H        -5.224576         1.970595         0.198036
 H        -3.689960         2.836853         0.391529
 H        -2.624497        -0.778635         0.616127
