19
Iteration:  2681
 O        -0.041202         0.038960        -0.242646
 C        -1.005000         0.529890         0.687097
 C        -1.377455         2.045852         1.111613
 C        -2.352415         1.144403         1.790256
 C        -1.075583         0.294102         2.282876
 C        -3.867007         1.670688         1.949732
 C        -4.212215         1.883471         0.445478
 O        -3.484772         0.833401        -0.274167
 C        -2.475869         0.213437         0.616329
 H         0.852313         0.405018        -0.016548
 H        -0.713483         2.735458         1.771740
 H        -1.832623         2.695359         0.291824
 H        -0.351240         0.848913         2.824697
 H        -1.184832        -0.772259         2.530817
 H        -4.578127         0.973380         2.499154
 H        -3.734355         2.607083         2.476040
 H        -5.312517         1.807272         0.206163
 H        -3.839048         2.952474         0.268472
 H        -2.990638        -0.650614         0.944951
