19
Iteration:   461charge 0 multiplicity 1
 O         0.120802        -0.023788         0.043740
 C        -1.007212         0.491906         0.740837
 C        -1.273378         1.946298         0.987720
 C        -2.381082         1.137803         1.770336
 C        -1.203661         0.266273         2.247535
 C        -3.871893         1.666780         2.072192
 C        -4.381077         1.750941         0.500146
 O        -3.298173         1.182377        -0.406390
 C        -2.543404         0.353497         0.445713
 H        -0.289213        -0.634518        -0.563074
 H        -0.554367         2.461849         1.594977
 H        -1.615151         2.582392         0.144437
 H        -0.532694         0.611597         3.028114
 H        -1.486113        -0.753845         2.486840
 H        -4.504335         0.872255         2.414348
 H        -4.013545         2.621692         2.618763
 H        -5.306770         1.203286         0.448227
 H        -4.536602         2.790732         0.143396
 H        -2.850134        -0.690736         0.451059
