19
Iteration:  3473
 O         0.021784        -0.003548         0.024408
 C        -0.934570         0.579222         0.694478
 C        -1.277010         2.062464         1.053569
 C        -2.428158         1.146122         1.724013
 C        -1.319347         0.156398         2.157622
 C        -3.683739         1.933110         1.974247
 C        -4.360978         1.394870         0.670256
 O        -3.370578         1.148930        -0.376247
 C        -2.449646         0.327497         0.482333
 H        -0.126433         0.115072        -0.941088
 H        -0.723152         2.612402         1.781931
 H        -1.751564         2.701323         0.310855
 H        -0.550569         0.600996         2.682228
 H        -1.459356        -0.911932         2.201232
 H        -4.433098         1.626677         2.722634
 H        -3.423811         2.977258         2.130550
 H        -4.909341         0.447295         0.854357
 H        -5.194718         1.979925         0.330930
 H        -2.877456        -0.710051         0.616698
