19
Iteration:   410charge 0 multiplicity 1
 O         0.084892         0.177874        -0.070400
 C        -1.042561         0.428661         0.717929
 C        -1.087804         1.983402         1.138635
 C        -2.388804         1.194267         1.820085
 C        -1.353605         0.049254         2.189635
 C        -3.794709         1.882248         1.929687
 C        -4.307865         1.656635         0.452424
 O        -3.406338         1.050134        -0.384673
 C        -2.561037         0.355561         0.560955
 H         0.192362        -0.791731        -0.082419
 H        -0.343880         2.206145         1.974261
 H        -1.364691         2.600367         0.299996
 H        -0.562294         0.541520         2.856996
 H        -1.508032        -0.985374         2.553066
 H        -4.637423         1.381771         2.533908
 H        -3.840341         2.998877         2.053689
 H        -5.228937         0.931351         0.692799
 H        -4.758104         2.545863         0.043619
 H        -2.844012        -0.709682         0.773558
