19
Iteration:  1225
 O         0.122503        -0.020089         0.051030
 C        -1.009607         0.487964         0.648844
 C        -1.285332         2.040697         1.071748
 C        -2.327569         1.167611         1.678941
 C        -1.265564         0.169023         2.193367
 C        -3.861901         1.552615         2.026991
 C        -4.402482         1.863488         0.557783
 O        -3.317820         1.191123        -0.382966
 C        -2.536369         0.325179         0.500018
 H        -0.124833        -0.829582        -0.494996
 H        -0.429318         2.357185         1.681493
 H        -1.482002         2.598133         0.214570
 H        -0.532521         0.548140         2.867653
 H        -1.683618        -0.811518         2.490088
 H        -4.317138         0.722433         2.637006
 H        -4.019416         2.548414         2.545500
 H        -5.426766         1.625401         0.432756
 H        -4.176457         2.868147         0.361534
 H        -2.888884        -0.677118         0.578090
