19
Iteration:  2845charge 0 multiplicity 1
 O         0.012648         0.124052        -0.216915
 C        -0.955581         0.516140         0.712990
 C        -1.205967         1.987855         1.015968
 C        -2.375946         1.270909         1.806593
 C        -1.265523         0.123726         2.318567
 C        -3.768323         1.909773         2.039418
 C        -4.410509         1.436789         0.598182
 O        -3.352360         1.074405        -0.409276
 C        -2.523603         0.316136         0.527029
 H         0.457770        -0.685172         0.011370
 H        -0.508805         2.693234         1.529984
 H        -1.671483         2.689351         0.251388
 H        -0.586381         0.263578         3.219434
 H        -1.772561        -0.876711         2.284648
 H        -4.319245         1.528694         2.990246
 H        -3.625125         3.010040         1.965866
 H        -5.142681         0.641940         0.649267
 H        -4.761835         2.397351         0.130436
 H        -3.043651        -0.608780         0.887853
