19
Iteration:  4323charge 0 multiplicity 1
 O         0.189246         0.044002        -0.012572
 C        -0.920510         0.481091         0.716330
 C        -1.099488         2.083263         1.056112
 C        -2.326464         1.246077         1.747094
 C        -1.266052         0.158237         2.240374
 C        -3.836959         1.719446         1.982666
 C        -4.531334         1.514145         0.540688
 O        -3.519489         1.169031        -0.404240
 C        -2.567747         0.380549         0.467375
 H         0.475903        -0.851146         0.176284
 H        -0.272822         2.389598         1.673954
 H        -1.326253         2.733997         0.172806
 H        -0.616921         0.714990         2.831213
 H        -1.538413        -0.891763         2.575943
 H        -4.357322         1.202888         2.765775
 H        -3.927403         2.771886         2.333735
 H        -5.334742         0.700258         0.563625
 H        -4.751125         2.462720         0.077006
 H        -2.961594        -0.667227         0.621367
