19
Iteration:  4480charge 0 multiplicity 1
 O         0.132058         0.088118         0.027603
 C        -0.974609         0.553910         0.728021
 C        -1.447942         1.966799         0.887757
 C        -2.402564         1.157111         1.841233
 C        -1.141324         0.246166         2.217416
 C        -3.805062         1.615578         2.025672
 C        -4.217549         1.834453         0.481605
 O        -3.494182         0.991813        -0.342949
 C        -2.565353         0.229480         0.532151
 H         0.810091         0.779469         0.028066
 H        -0.789210         2.637677         1.509920
 H        -1.807159         2.296619        -0.065383
 H        -0.247193         0.519279         2.869494
 H        -1.571804        -0.651136         2.512866
 H        -4.240220         0.692684         2.487186
 H        -4.000390         2.556260         2.487670
 H        -5.285780         1.565637         0.192861
 H        -4.076413         2.888051         0.142657
 H        -2.826856        -0.852092         0.454107
