19
Iteration:  4734
 O         0.163472         0.157544        -0.100987
 C        -0.867028         0.525446         0.733539
 C        -1.253406         1.995064         1.055692
 C        -2.438355         1.126987         1.703271
 C        -1.283705         0.325630         2.297933
 C        -3.868845         1.543388         1.991527
 C        -4.253843         1.867807         0.566890
 O        -3.485808         0.911567        -0.371583
 C        -2.530214         0.301847         0.476683
 H         0.187007        -0.827252        -0.205083
 H        -0.691224         2.463226         1.844902
 H        -1.472674         2.650877         0.174202
 H        -0.803286         0.922720         3.009819
 H        -1.744502        -0.695238         2.545449
 H        -4.436501         0.735463         2.444362
 H        -4.010937         2.468313         2.640477
 H        -5.269595         1.592658         0.218115
 H        -4.159460         2.948484         0.304963
 H        -2.968449        -0.640190         0.807098
