19
Iteration:  3513charge 0 multiplicity 1
 O         0.152982        -0.050982        -0.008129
 C        -0.941429         0.488532         0.671949
 C        -1.181499         2.024381         0.904282
 C        -2.383827         1.234738         1.725567
 C        -1.259029         0.333451         2.179662
 C        -3.852930         1.593625         2.088705
 C        -4.407988         1.687804         0.578219
 O        -3.462275         1.068950        -0.313684
 C        -2.538219         0.356930         0.535326
 H         0.292323         0.502439        -0.787462
 H        -0.332386         2.428929         1.487147
 H        -1.389211         2.592680         0.015238
 H        -0.618142         0.875063         3.005100
 H        -1.657921        -0.599601         2.643446
 H        -4.290804         0.698746         2.526376
 H        -4.063998         2.462433         2.696043
 H        -5.295999         1.037183         0.556717
 H        -4.555529         2.724779         0.301419
 H        -2.836542        -0.688489         0.637287
