19
Iteration:  4031charge 0 multiplicity 1
 O         0.160077         0.009326         0.035013
 C        -0.904862         0.622893         0.738763
 C        -1.128136         2.028522         1.109568
 C        -2.356654         1.152722         1.688324
 C        -1.298814         0.120567         2.183118
 C        -3.703364         1.795291         1.959781
 C        -4.508718         1.654339         0.563724
 O        -3.569064         1.007599        -0.398733
 C        -2.498788         0.334229         0.493531
 H         0.099778         0.541099        -0.774217
 H        -0.472383         2.512568         1.842503
 H        -1.456139         2.652089         0.286196
 H        -0.710373         0.387122         3.042256
 H        -1.551193        -0.939602         2.187316
 H        -4.257596         1.290999         2.750137
 H        -3.549471         2.824706         2.297105
 H        -5.410890         1.074269         0.752991
 H        -4.965086         2.537635         0.035723
 H        -2.865502        -0.700314         0.693746
