19
Iteration:  2793
 O         0.097852        -0.123004         0.004185
 C        -0.925793         0.567248         0.677153
 C        -1.278445         2.055887         0.933701
 C        -2.407544         1.276196         1.777740
 C        -1.251223         0.231280         2.177176
 C        -3.750789         1.664231         2.084034
 C        -4.490568         1.601878         0.655549
 O        -3.344192         1.073286        -0.398115
 C        -2.512367         0.433108         0.498303
 H         0.020079        -0.070315        -0.960248
 H        -0.589575         2.812237         1.430862
 H        -1.683110         2.624751         0.032659
 H        -0.510944         0.762700         2.849477
 H        -1.551599        -0.649092         2.615142
 H        -4.245434         0.978180         2.759162
 H        -3.644968         2.646535         2.594513
 H        -5.260429         0.787204         0.437548
 H        -4.978246         2.531868         0.327892
 H        -2.685908        -0.630632         0.709763
