19
Iteration:  1376
 O         0.110220        -0.139096        -0.069266
 C        -1.005759         0.528251         0.681392
 C        -1.154382         2.022613         1.059084
 C        -2.469704         1.160343         1.774983
 C        -1.268506         0.153202         2.154876
 C        -3.925615         1.614849         1.981921
 C        -4.419327         1.730518         0.586941
 O        -3.294137         1.232549        -0.335024
 C        -2.536010         0.437479         0.457472
 H         0.917629         0.089426         0.494064
 H        -0.395019         2.468254         1.720942
 H        -1.295550         2.660843         0.224047
 H        -0.558091         0.492717         2.900848
 H        -1.476053        -0.960448         2.385733
 H        -4.440158         1.041924         2.641434
 H        -3.856715         2.576516         2.467122
 H        -5.367924         1.170385         0.489408
 H        -4.656800         2.754154         0.336382
 H        -3.055072        -0.597394         0.576071
