19
Iteration:  4026
 O         0.194567        -0.006546         0.037932
 C        -0.893533         0.638630         0.713904
 C        -1.165896         2.066902         1.121168
 C        -2.366089         1.152570         1.690425
 C        -1.302999         0.101233         2.179690
 C        -3.709452         1.815940         1.970518
 C        -4.474284         1.657876         0.555471
 O        -3.566565         1.005759        -0.390020
 C        -2.557954         0.304292         0.479635
 H         0.219902         0.463848        -0.821912
 H        -0.443303         2.526020         1.825454
 H        -1.408579         2.717412         0.248336
 H        -0.660664         0.469159         3.023956
 H        -1.739599        -0.943222         2.107438
 H        -4.213069         1.286000         2.813423
 H        -3.545713         2.809502         2.461839
 H        -5.393096         1.041351         0.786102
 H        -4.941328         2.481005         0.036339
 H        -2.756051        -0.733477         0.757972
