19
Iteration:  4419
 O         0.051767         0.062647        -0.034716
 C        -0.987593         0.582671         0.701792
 C        -1.302503         2.007365         1.083658
 C        -2.396520         1.196143         1.827361
 C        -1.182642         0.186954         2.209080
 C        -3.797314         1.717279         1.907328
 C        -4.372906         1.847795         0.503869
 O        -3.405260         0.824916        -0.393099
 C        -2.493162         0.291058         0.605259
 H         0.499243         0.756320        -0.534450
 H        -0.454370         2.602329         1.518035
 H        -1.803488         2.548982         0.225988
 H        -0.497809         0.654352         2.880038
 H        -1.419772        -0.950889         2.354651
 H        -4.321385         0.944059         2.468708
 H        -4.095040         2.591892         2.576785
 H        -5.361458         1.458339         0.317519
 H        -4.250509         2.937412         0.268218
 H        -2.726690        -0.747100         0.845722
