19
Iteration:   840charge 0 multiplicity 1
 O         0.071559         0.100746        -0.057155
 C        -0.965914         0.559609         0.647226
 C        -1.327983         2.070155         1.050793
 C        -2.426662         1.078801         1.739721
 C        -1.320783         0.192760         2.333018
 C        -3.755069         1.747364         1.989246
 C        -4.093192         1.947329         0.468547
 O        -3.633587         0.791945        -0.366180
 C        -2.478410         0.185203         0.507227
 H         0.769482         0.315727         0.552632
 H        -0.575130         2.583150         1.715236
 H        -1.757129         2.698517         0.347770
 H        -0.669752         0.602387         3.085906
 H        -1.536835        -0.808486         2.420022
 H        -4.526784         1.123244         2.458862
 H        -3.506265         2.720124         2.517801
 H        -5.192784         2.009539         0.335414
 H        -3.637544         2.913013         0.275700
 H        -2.450071        -0.870427         0.363012
