19
Iteration:  3873charge 0 multiplicity 1
 O         0.115315         0.308518        -0.060028
 C        -1.013341         0.460856         0.762782
 C        -1.421040         1.995718         0.945799
 C        -2.365358         1.082843         1.727426
 C        -1.238229         0.172323         2.293570
 C        -3.705040         1.723637         2.038611
 C        -4.235792         1.872271         0.533839
 O        -3.468555         0.940283        -0.341975
 C        -2.568435         0.158370         0.498752
 H         0.154474        -0.659731        -0.189208
 H        -0.696531         2.688475         1.309614
 H        -1.742777         2.371708        -0.078892
 H        -0.312243         0.422070         2.955921
 H        -1.497699        -0.830831         2.539465
 H        -4.415807         1.029311         2.566830
 H        -3.589669         2.653386         2.586315
 H        -5.289330         1.640485         0.313336
 H        -3.879970         2.945191         0.262034
 H        -2.991817        -0.869962         0.693753
