19
Iteration:  4866charge 0 multiplicity 1
 O         0.012560         0.008658        -0.074842
 C        -0.948259         0.531811         0.773325
 C        -1.381790         2.087330         1.123515
 C        -2.391974         1.081435         1.711926
 C        -1.175183         0.328617         2.344411
 C        -3.817163         1.621188         1.950835
 C        -4.319948         1.660268         0.456023
 O        -3.274198         1.151189        -0.358052
 C        -2.526204         0.280719         0.489212
 H        -0.400941        -0.167509        -0.954325
 H        -0.760298         2.558094         1.838032
 H        -1.582948         2.531275         0.151730
 H        -0.491615         0.663736         3.053868
 H        -1.223451        -0.799049         2.595027
 H        -4.446581         0.977146         2.498187
 H        -3.837865         2.554278         2.559543
 H        -5.251543         1.057797         0.464750
 H        -4.651770         2.661841         0.157333
 H        -2.910071        -0.729173         0.507833
