19
Iteration:  3740
 O         0.052086         0.113949        -0.118330
 C        -0.953716         0.579104         0.727775
 C        -1.304866         1.981449         1.135771
 C        -2.404650         1.165726         1.781185
 C        -1.306811         0.035342         2.189800
 C        -3.713939         1.888776         1.867233
 C        -4.363096         1.626517         0.581698
 O        -3.414101         0.956680        -0.298185
 C        -2.497625         0.314841         0.501087
 H         0.633506         0.812931        -0.463746
 H        -0.621872         2.635540         1.730748
 H        -1.679647         2.589469         0.321307
 H        -0.637141         0.344457         3.055636
 H        -1.621011        -1.009938         2.441330
 H        -4.214096         1.715370         2.845242
 H        -3.477202         2.957233         1.867216
 H        -5.074247         0.849563         0.732104
 H        -4.683533         2.591656         0.096200
 H        -2.776990        -0.766274         0.756889
