19
Iteration:  1902
 O        -0.072362        -0.146511        -0.003384
 C        -1.041901         0.525753         0.656058
 C        -1.298822         2.022591         1.193036
 C        -2.366972         1.263412         1.795283
 C        -1.216309         0.151411         2.113502
 C        -3.806395         1.717119         2.021043
 C        -4.318210         1.637580         0.546853
 O        -3.286323         1.183907        -0.339348
 C        -2.494096         0.379906         0.395821
 H         0.528162         0.477410        -0.401826
 H        -0.544299         2.449816         1.887182
 H        -1.489829         2.740769         0.436795
 H        -0.267947         0.428087         2.541625
 H        -1.498287        -0.846143         2.319444
 H        -4.348734         1.010638         2.655848
 H        -3.947150         2.798096         2.346461
 H        -5.154820         0.871861         0.389309
 H        -4.684657         2.667868         0.293738
 H        -2.821376        -0.614187         0.493324
