19
Iteration:  1789
 O        -0.053354         0.066496        -0.252308
 C        -1.013160         0.543741         0.731523
 C        -1.308145         1.997274         1.201035
 C        -2.466647         1.050742         1.865593
 C        -1.332809         0.147256         2.264252
 C        -3.803349         1.607554         1.960283
 C        -4.089512         1.902370         0.470455
 O        -3.384494         1.049057        -0.368572
 C        -2.483522         0.286995         0.541300
 H         0.879681         0.181757         0.050365
 H        -0.582015         2.394166         1.894252
 H        -1.546422         2.661297         0.345397
 H        -0.654482         0.707052         2.977045
 H        -1.523968        -0.954594         2.473227
 H        -4.553015         0.936361         2.426432
 H        -3.866867         2.561072         2.426899
 H        -5.168731         1.923210         0.208624
 H        -3.742152         2.991010         0.401912
 H        -2.757282        -0.729214         0.445013
