19
Iteration:   678charge 0 multiplicity 1
 O         0.078461        -0.029393         0.011246
 C        -0.899286         0.522868         0.797903
 C        -1.313489         2.007732         1.098702
 C        -2.432564         1.083198         1.695615
 C        -1.335450         0.210046         2.300291
 C        -3.645714         1.875086         1.915447
 C        -4.376508         1.607120         0.579229
 O        -3.406441         1.123243        -0.393147
 C        -2.519461         0.265827         0.398473
 H         0.049662         0.555522        -0.833384
 H        -0.805695         2.387084         2.010734
 H        -1.507273         2.666351         0.309815
 H        -0.809091         0.866328         3.047565
 H        -1.476241        -0.828848         2.556219
 H        -4.195728         1.442005         2.700703
 H        -3.467113         2.932753         1.953411
 H        -5.089886         0.858821         0.552792
 H        -4.791950         2.507585         0.098326
 H        -2.864107        -0.799326         0.424081
