19
Iteration:  1377charge 0 multiplicity 1
 O         0.116533        -0.139803        -0.062112
 C        -1.006288         0.530470         0.679138
 C        -1.161709         2.017562         1.054242
 C        -2.459601         1.158741         1.768740
 C        -1.270517         0.149592         2.149253
 C        -3.925167         1.609175         1.989680
 C        -4.422657         1.738447         0.585547
 O        -3.294566         1.234585        -0.337217
 C        -2.538791         0.436543         0.464994
 H         0.919517         0.114887         0.481482
 H        -0.380853         2.464632         1.693159
 H        -1.286775         2.667381         0.244499
 H        -0.552103         0.506845         2.904192
 H        -1.473951        -0.956892         2.424228
 H        -4.457032         1.032008         2.647930
 H        -3.844808         2.607871         2.436375
 H        -5.399523         1.158740         0.454853
 H        -4.669736         2.770223         0.376882
 H        -3.067229        -0.610275         0.554184
