19
Iteration:  1129charge 0 multiplicity 1
 O         0.193164         0.166877        -0.048619
 C        -0.968323         0.582591         0.751718
 C        -1.323470         1.952535         1.080275
 C        -2.483622         1.082530         1.740819
 C        -1.371860         0.092548         2.203721
 C        -3.729859         1.742269         1.992711
 C        -4.091630         1.876997         0.515508
 O        -3.546725         0.952949        -0.331297
 C        -2.532864         0.280985         0.454734
 H         0.018616        -0.706991        -0.518507
 H        -0.704423         2.545224         1.877598
 H        -1.580671         2.531156         0.206151
 H        -0.868174         0.573045         3.007808
 H        -1.723514        -0.874884         2.550613
 H        -4.536265         1.070159         2.444116
 H        -3.624801         2.641642         2.610043
 H        -5.209293         1.823098         0.424435
 H        -3.673939         2.907068         0.177422
 H        -2.897272        -0.793242         0.559308
