19
Iteration:   335
 O         0.162049        -0.061885         0.025648
 C        -0.948338         0.452941         0.734562
 C        -1.110386         2.049798         1.058471
 C        -2.373515         1.295939         1.753979
 C        -1.229145         0.216248         2.221280
 C        -3.921486         1.675442         1.918085
 C        -4.454006         1.689245         0.511830
 O        -3.428501         1.135490        -0.341040
 C        -2.545176         0.413423         0.464936
 H        -0.080615        -0.841908        -0.502415
 H        -0.236251         2.412192         1.764805
 H        -1.340658         2.550672         0.116677
 H        -0.401838         0.500660         3.006103
 H        -1.631904        -0.843120         2.526781
 H        -4.347376         0.786261         2.488688
 H        -4.253222         2.555743         2.504438
 H        -5.390686         1.100447         0.498310
 H        -4.683131         2.684838         0.125092
 H        -2.858428        -0.631501         0.695964
