19
Iteration:  2998
 O         0.045227         0.271636        -0.170153
 C        -1.005486         0.502254         0.714756
 C        -1.296048         1.979234         1.051062
 C        -2.345509         1.155487         1.808054
 C        -1.250317         0.159705         2.308738
 C        -3.701149         1.739606         1.976217
 C        -4.217478         1.852481         0.503118
 O        -3.508520         0.863776        -0.358968
 C        -2.636709         0.197689         0.554179
 H         0.858320        -0.245704         0.031397
 H        -0.600217         2.453590         1.767155
 H        -1.535115         2.517649         0.150195
 H        -0.246858         0.287289         2.837203
 H        -1.569591        -0.810924         2.577257
 H        -4.384236         1.107415         2.619006
 H        -3.726776         2.729142         2.444899
 H        -5.253312         1.668323         0.303439
 H        -4.136217         2.824155         0.007955
 H        -3.046975        -0.776117         0.864023
