19
Iteration:  1137charge 0 multiplicity 1
 O         0.113124         0.231551        -0.043951
 C        -0.908814         0.511175         0.732094
 C        -1.287904         1.988822         1.114594
 C        -2.432798         1.073870         1.754060
 C        -1.334980         0.076222         2.251929
 C        -3.763520         1.714094         1.954446
 C        -4.113306         1.935852         0.503608
 O        -3.520855         0.935811        -0.335606
 C        -2.571936         0.235434         0.471447
 H        -0.069589        -0.663313        -0.473979
 H        -0.689337         2.625808         1.750331
 H        -1.691282         2.511490         0.223379
 H        -0.621535         0.277710         3.051814
 H        -1.750876        -0.939203         2.392105
 H        -4.611878         1.264973         2.552062
 H        -3.755131         2.821919         2.206374
 H        -5.189439         1.913732         0.376777
 H        -3.734879         2.888893         0.186184
 H        -2.878952        -0.846804         0.559503
