19
Iteration:   795
 O         0.023195         0.034264        -0.060735
 C        -1.039749         0.571466         0.693995
 C        -1.255914         2.012934         0.958342
 C        -2.387360         1.189400         1.881072
 C        -1.174643         0.215820         2.244627
 C        -3.930380         1.661833         1.948536
 C        -4.286560         1.813558         0.424867
 O        -3.340886         1.003315        -0.345280
 C        -2.525731         0.254915         0.586857
 H         0.751601        -0.112147         0.568497
 H        -0.389212         2.319040         1.573322
 H        -1.495779         2.589493         0.089302
 H        -0.342530         0.547632         2.798877
 H        -1.491420        -0.802823         2.416011
 H        -4.430774         0.749826         2.348017
 H        -4.103789         2.613359         2.514057
 H        -5.350984         1.513927         0.352062
 H        -4.235206         2.902414         0.209979
 H        -3.104809        -0.603410         0.897291
