19
Iteration:  2051charge 0 multiplicity 1
 O         0.045975        -0.004564        -0.162192
 C        -0.918072         0.520376         0.733322
 C        -1.309200         2.054165         0.960937
 C        -2.389713         1.156390         1.786622
 C        -1.191838         0.183456         2.257971
 C        -3.867891         1.639947         2.027020
 C        -4.256919         1.912030         0.503669
 O        -3.439572         0.997358        -0.297666
 C        -2.569204         0.258822         0.560455
 H         0.919422         0.295317         0.116655
 H        -0.626566         2.751005         1.511501
 H        -1.798950         2.443016         0.041072
 H        -0.417806         0.620764         3.002544
 H        -1.340592        -0.897896         2.481266
 H        -4.431341         0.791540         2.476835
 H        -4.063232         2.482358         2.646342
 H        -5.335687         1.669979         0.368024
 H        -4.101384         2.976281         0.195805
 H        -2.953675        -0.766825         0.689336
