19
Iteration:  4224charge 0 multiplicity 1
 O        -0.013220         0.009147        -0.148486
 C        -1.059933         0.593193         0.665626
 C        -1.205895         2.080309         1.055317
 C        -2.379355         1.284428         1.813093
 C        -1.393160         0.246758         2.292872
 C        -3.770637         1.575586         2.001587
 C        -4.216713         1.830203         0.491772
 O        -3.350264         0.879251        -0.373095
 C        -2.479595         0.249742         0.561716
 H         0.481384         0.818527        -0.419101
 H        -0.549320         2.527934         1.822602
 H        -1.606262         2.755934         0.342345
 H        -0.724289         0.484562         3.095434
 H        -1.837464        -0.769762         2.572448
 H        -4.231195         0.629595         2.191191
 H        -4.051202         2.402110         2.702087
 H        -5.234462         1.432924         0.377750
 H        -4.050488         2.854280         0.194254
 H        -2.795299        -0.722506         1.010655
