19
Iteration:  2497
 O         0.017557        -0.054097        -0.097643
 C        -0.994314         0.603811         0.651956
 C        -1.307570         2.091633         0.955686
 C        -2.361339         1.210707         1.712290
 C        -1.270888         0.272657         2.230995
 C        -3.663030         1.682453         2.082898
 C        -4.412597         1.672984         0.627722
 O        -3.384096         1.051704        -0.321544
 C        -2.533386         0.290990         0.464457
 H         0.842092        -0.181654         0.431177
 H        -0.701055         2.753216         1.567780
 H        -1.697631         2.581821         0.071641
 H        -0.462003         0.431581         3.057972
 H        -1.749300        -0.766985         2.424691
 H        -4.094545         0.851845         2.681971
 H        -3.781125         2.640747         2.573352
 H        -5.195430         0.944886         0.542730
 H        -4.566303         2.626763         0.155487
 H        -2.693963        -0.785254         0.616173
