19
Iteration:  3465
 O         0.067894         0.001979        -0.036722
 C        -1.025401         0.641765         0.643642
 C        -1.250441         2.015962         1.085360
 C        -2.403198         1.171707         1.768894
 C        -1.365646         0.133012         2.235960
 C        -3.725682         1.943135         1.955887
 C        -4.387289         1.383227         0.695970
 O        -3.338290         1.121727        -0.396529
 C        -2.460936         0.351868         0.449480
 H        -0.150666         0.081375        -1.002624
 H        -0.600535         2.572231         1.821743
 H        -1.695458         2.705157         0.279093
 H        -0.529043         0.428854         2.861329
 H        -1.516455        -0.967974         2.380943
 H        -4.271687         1.647382         2.890551
 H        -3.516186         3.047069         1.900716
 H        -4.588480         0.403983         1.152505
 H        -5.110491         2.056671         0.118959
 H        -2.747090        -0.680198         0.641914
