19
Iteration:  3437
 O         0.096261         0.099934        -0.142834
 C        -0.934626         0.508457         0.765939
 C        -1.046302         1.962785         1.135113
 C        -2.333275         1.260068         1.712847
 C        -1.401752         0.179043         2.231780
 C        -3.766769         1.821383         1.888845
 C        -4.508359         1.376505         0.572525
 O        -3.455547         1.145696        -0.341250
 C        -2.465080         0.376576         0.565581
 H        -0.418895         0.045233        -0.970474
 H        -0.442830         2.426181         1.916169
 H        -1.211289         2.611019         0.306023
 H        -0.501339         0.437802         2.943108
 H        -1.587324        -0.835279         2.570403
 H        -4.212434         1.552489         2.859322
 H        -3.760531         2.906751         1.829940
 H        -5.065941         0.502775         0.909466
 H        -5.122961         2.158868         0.105867
 H        -2.927093        -0.589394         0.936066
