19
Iteration:  2955
 O         0.076707         0.033664        -0.115434
 C        -0.971579         0.544171         0.746767
 C        -1.359271         2.061547         0.980805
 C        -2.399053         1.131403         1.764527
 C        -1.134621         0.287256         2.255527
 C        -3.811136         1.565042         1.981892
 C        -4.301424         1.892902         0.552156
 O        -3.433323         1.009370        -0.319374
 C        -2.483358         0.218360         0.546666
 H        -0.374368        -0.804610        -0.456801
 H        -0.653657         2.668759         1.573169
 H        -1.738886         2.613801         0.125795
 H        -0.416837         0.863137         2.983716
 H        -1.372780        -0.701177         2.608867
 H        -4.414334         0.731899         2.483719
 H        -3.816121         2.494001         2.616635
 H        -5.366201         1.821717         0.433796
 H        -4.159634         2.933132         0.220807
 H        -2.929189        -0.760612         0.561793
