19
Iteration:  2493
 O         0.037874        -0.047922        -0.100295
 C        -0.956094         0.579057         0.658726
 C        -1.320626         2.070047         0.941028
 C        -2.338626         1.214557         1.736787
 C        -1.274972         0.275848         2.261262
 C        -3.714350         1.661380         2.105237
 C        -4.431000         1.702815         0.640368
 O        -3.392017         1.048508        -0.357409
 C        -2.530180         0.305996         0.464737
 H         0.828774        -0.166481         0.425153
 H        -0.610691         2.827771         1.455412
 H        -1.724824         2.474960        -0.008500
 H        -0.463843         0.500382         2.890329
 H        -1.666657        -0.755604         2.386976
 H        -4.103219         0.809101         2.668970
 H        -3.678286         2.656458         2.569533
 H        -5.268067         0.964014         0.458428
 H        -4.539139         2.749233         0.250082
 H        -2.799287        -0.825055         0.659192
