19
Iteration:   327
 O         0.218796        -0.070708        -0.005321
 C        -0.937817         0.457225         0.706550
 C        -1.114942         1.986573         1.049886
 C        -2.388717         1.244643         1.741349
 C        -1.256580         0.230865         2.245667
 C        -3.924095         1.631629         1.983360
 C        -4.480135         1.751351         0.442563
 O        -3.450491         1.109524        -0.308313
 C        -2.511751         0.497715         0.547344
 H        -0.243063        -0.779056        -0.422983
 H        -0.214403         2.383523         1.538051
 H        -1.289791         2.662691         0.229867
 H        -0.436339         0.647243         2.833589
 H        -1.540118        -0.803724         2.508709
 H        -4.414270         0.782364         2.437434
 H        -4.288225         2.516956         2.426933
 H        -5.308310         1.096452         0.301361
 H        -4.707847         2.724277        -0.097784
 H        -2.952314        -0.487229         0.802971
