19
Iteration:  4286charge 0 multiplicity 1
 O         0.115466         0.047633        -0.049264
 C        -1.044520         0.527165         0.664106
 C        -1.329242         2.100525         1.000504
 C        -2.419766         1.172547         1.780592
 C        -1.355013         0.159982         2.183087
 C        -3.723658         1.786517         2.089934
 C        -4.308949         1.531343         0.573319
 O        -3.298538         1.122633        -0.378621
 C        -2.494682         0.233114         0.394992
 H         0.571673        -0.314124         0.746641
 H        -0.627601         2.801814         1.606207
 H        -1.836988         2.781010         0.338505
 H        -0.695003         0.639498         3.061408
 H        -1.707911        -0.880774         2.473120
 H        -4.384817         1.362647         2.909461
 H        -3.694339         2.891908         2.176418
 H        -5.286271         1.029172         0.758495
 H        -4.739707         2.494327         0.154089
 H        -3.029194        -0.707065         0.507030
