19
Iteration:  2256charge 0 multiplicity 1
 O        -0.096622         0.046673        -0.186233
 C        -1.005919         0.575334         0.780944
 C        -1.283492         2.021329         1.121114
 C        -2.406483         1.159959         1.778174
 C        -1.096314         0.113639         2.199785
 C        -3.754331         1.892959         1.862549
 C        -4.410354         1.565848         0.536040
 O        -3.292279         1.032526        -0.307197
 C        -2.550321         0.292412         0.605891
 H         0.808467         0.231431         0.100372
 H        -0.570518         2.563619         1.752750
 H        -1.734594         2.654967         0.362254
 H        -0.419979         0.660711         2.844447
 H        -1.383055        -0.986722         2.355182
 H        -4.321983         1.543918         2.808307
 H        -3.596373         2.966660         1.845715
 H        -5.329859         0.837607         0.571524
 H        -4.671814         2.553541         0.161828
 H        -2.952507        -0.795979         0.610453
