19
Iteration:  3884charge 0 multiplicity 1
 O         0.126962         0.308185        -0.053396
 C        -1.008600         0.466936         0.691510
 C        -1.394816         1.911302         0.964758
 C        -2.436356         1.105704         1.739840
 C        -1.290353         0.192681         2.213935
 C        -3.702006         1.739145         2.045999
 C        -4.178202         1.907554         0.555625
 O        -3.409520         0.846118        -0.323978
 C        -2.575340         0.205869         0.546313
 H         0.145023        -0.396383        -0.711493
 H        -0.838918         2.457303         1.705247
 H        -1.856310         2.511997         0.132072
 H        -0.627191         0.822628         2.908819
 H        -1.607929        -0.770168         2.560847
 H        -4.340991         1.060320         2.670052
 H        -3.586350         2.678773         2.587690
 H        -5.252108         1.687315         0.417839
 H        -4.021463         2.929220         0.034558
 H        -2.939040        -0.843667         0.772604
