19
Iteration:  1900charge 0 multiplicity 1
 O        -0.068631        -0.141008         0.020782
 C        -1.048855         0.528810         0.653477
 C        -1.275076         2.026959         1.183277
 C        -2.365259         1.256939         1.813168
 C        -1.209785         0.153833         2.103771
 C        -3.808958         1.725699         2.024283
 C        -4.331827         1.635936         0.532035
 O        -3.292888         1.186140        -0.352383
 C        -2.499394         0.376140         0.403584
 H         0.500668         0.472308        -0.441572
 H        -0.556943         2.397920         1.894402
 H        -1.465974         2.731399         0.377551
 H        -0.186355         0.440612         2.532726
 H        -1.498665        -0.903093         2.234806
 H        -4.340274         0.984260         2.625865
 H        -3.950901         2.734321         2.385489
 H        -5.159860         0.910107         0.420621
 H        -4.700648         2.666229         0.375291
 H        -2.867290        -0.650622         0.475389
