19
Iteration:   579charge 0 multiplicity 1
 O         0.063176         0.140067        -0.121642
 C        -0.990898         0.490594         0.766426
 C        -1.415411         1.964687         0.996329
 C        -2.484167         1.085637         1.764665
 C        -1.299528         0.201610         2.276951
 C        -3.771315         1.762165         1.992861
 C        -4.145478         1.973884         0.485715
 O        -3.401587         0.913542        -0.344997
 C        -2.493790         0.191021         0.548290
 H         0.822557        -0.279860         0.366114
 H        -0.797269         2.583052         1.635694
 H        -1.790766         2.571936         0.148503
 H        -0.629436         0.554447         3.073691
 H        -1.468630        -0.873165         2.551645
 H        -4.393048         0.958334         2.300225
 H        -3.811188         2.605246         2.669346
 H        -5.176298         1.921764         0.285293
 H        -3.730581         2.873559        -0.017263
 H        -2.886360        -0.852743         0.608998
