19
Iteration:  3006
 O         0.040386         0.286270        -0.168025
 C        -0.968098         0.491958         0.685448
 C        -1.201781         1.903267         1.004172
 C        -2.369379         1.107076         1.777713
 C        -1.250626         0.144130         2.317210
 C        -3.750391         1.763120         1.954574
 C        -4.232323         1.849538         0.483067
 O        -3.526614         0.877290        -0.260793
 C        -2.617018         0.264406         0.568207
 H         0.868433        -0.096580         0.176332
 H        -0.651755         2.498100         1.717812
 H        -1.464537         2.618282         0.204048
 H        -0.572293         0.628310         2.965048
 H        -1.591594        -0.903803         2.522618
 H        -4.333590         0.989215         2.399007
 H        -3.814688         2.742419         2.344931
 H        -5.346398         1.511048         0.599091
 H        -4.056132         2.818641        -0.050055
 H        -3.066049        -0.747354         0.629759
