19
Iteration:  1844charge 0 multiplicity 1
 O         0.175496         0.130478         0.000468
 C        -0.979764         0.485958         0.654736
 C        -1.258994         1.962117         1.051693
 C        -2.387653         1.097637         1.660584
 C        -1.436247         0.146259         2.234330
 C        -3.712828         1.668530         2.119299
 C        -4.305706         1.861425         0.622748
 O        -3.418757         1.122755        -0.436330
 C        -2.559862         0.282512         0.376929
 H         0.316770        -0.863990        -0.025933
 H        -0.519845         2.324368         1.738420
 H        -1.519458         2.740355         0.285907
 H        -0.733352         0.514168         3.074532
 H        -1.757357        -0.912741         2.515302
 H        -4.330284         0.980587         2.739615
 H        -3.614443         2.545146         2.721319
 H        -5.256340         1.306209         0.560339
 H        -4.476610         2.942006         0.382032
 H        -2.998229        -0.714191         0.463877
