19
Iteration:  1317
 O        -0.025293         0.066547        -0.242508
 C        -1.011934         0.501798         0.753657
 C        -1.271453         1.914856         1.171132
 C        -2.464827         1.168948         1.839378
 C        -1.272355         0.051022         2.234091
 C        -3.825950         1.831957         1.965981
 C        -4.380076         1.711606         0.423443
 O        -3.246951         1.171509        -0.312882
 C        -2.476523         0.335487         0.558771
 H         0.785713        -0.161531         0.242127
 H        -0.380024         2.255303         1.773903
 H        -1.374414         2.629485         0.245761
 H        -0.631968         0.514097         3.033027
 H        -1.651858        -0.881540         2.553185
 H        -4.314682         1.058111         2.724504
 H        -3.567562         2.851630         2.281351
 H        -5.034858         0.898786         0.510800
 H        -4.770267         2.553292        -0.287560
 H        -2.749619        -0.748679         0.580990
