19
Iteration:   181
 O         0.068824         0.003640         0.080937
 C        -0.934302         0.523066         0.704478
 C        -1.290458         1.945941         0.999901
 C        -2.435027         1.140051         1.835591
 C        -1.095334         0.207938         2.290450
 C        -3.832905         1.653068         1.933104
 C        -4.323280         1.851519         0.481806
 O        -3.392743         1.088313        -0.425832
 C        -2.643009         0.290653         0.545899
 H        -0.126837        -0.269644        -0.882122
 H        -0.543665         2.719188         1.471164
 H        -1.622583         2.606418         0.122274
 H        -0.355885         0.890043         2.867584
 H        -1.178073        -0.950599         2.429773
 H        -4.419096         0.797600         2.397964
 H        -3.981801         2.646208         2.371518
 H        -5.361390         1.528740         0.326042
 H        -4.245994         2.936949         0.247204
 H        -2.807094        -0.767450         0.815099
