19
Iteration:   806
 O         0.058062         0.080908        -0.121348
 C        -0.977220         0.471750         0.749317
 C        -1.218058         1.998265         0.981360
 C        -2.419069         1.211972         1.775452
 C        -1.276858         0.235675         2.275488
 C        -3.866067         1.638634         1.967563
 C        -4.278983         1.907448         0.480123
 O        -3.414462         0.933353        -0.346041
 C        -2.523150         0.263093         0.604510
 H         0.827443        -0.165632         0.344593
 H        -0.543835         2.573335         1.651359
 H        -1.544763         2.665535         0.222568
 H        -0.646085         0.688881         2.988376
 H        -1.484016        -0.774768         2.576208
 H        -4.561272         0.872298         2.372960
 H        -4.104998         2.523799         2.620922
 H        -5.315974         1.611112         0.267436
 H        -4.073610         2.828762        -0.063042
 H        -2.619080        -0.818211         0.622039
