19
Iteration:   416
 O         0.083814         0.140033        -0.081293
 C        -1.017991         0.544192         0.724634
 C        -1.130335         1.938874         1.150653
 C        -2.377555         1.225944         1.806790
 C        -1.388965         0.074295         2.221036
 C        -3.807940         1.889706         1.951836
 C        -4.320496         1.657205         0.479644
 O        -3.383510         1.000468        -0.412998
 C        -2.541939         0.332824         0.526706
 H         0.200137        -0.797253        -0.161796
 H        -0.385666         2.231502         1.852210
 H        -1.220093         2.738486         0.370264
 H        -0.543074         0.321056         2.823672
 H        -1.739327        -0.952460         2.427409
 H        -4.398440         1.310734         2.622482
 H        -3.832319         2.945669         2.233004
 H        -5.125891         1.019831         0.686942
 H        -4.725499         2.625766         0.101370
 H        -2.888463        -0.681890         0.747392
