19
Iteration:  3991
 O         0.146948         0.028610         0.141410
 C        -0.943856         0.564232         0.707961
 C        -1.303443         1.997620         0.907280
 C        -2.414982         1.083256         1.717561
 C        -1.208841         0.189396         2.180211
 C        -3.737254         1.694987         2.034097
 C        -4.440646         1.734580         0.593804
 O        -3.444635         1.119348        -0.351896
 C        -2.585478         0.291597         0.438374
 H         0.458008         0.241376        -0.755582
 H        -0.507514         2.558186         1.349803
 H        -1.630859         2.497975        -0.051409
 H        -0.452204         0.630453         2.917237
 H        -1.407648        -0.817308         2.484190
 H        -4.261799         1.047209         2.768364
 H        -3.511084         2.651919         2.471778
 H        -5.340877         1.098243         0.541482
 H        -4.567551         2.778567         0.286908
 H        -2.881814        -0.764066         0.545701
