19
Iteration:  2735charge 0 multiplicity 1
 O         0.116718         0.062243        -0.241377
 C        -0.971254         0.534632         0.713692
 C        -1.369524         2.014097         0.932102
 C        -2.379828         1.218341         1.802938
 C        -1.263012         0.254960         2.330347
 C        -3.779612         1.745896         2.040537
 C        -4.225153         1.774339         0.523803
 O        -3.497365         0.880131        -0.292823
 C        -2.539444         0.240042         0.543607
 H         1.009326         0.466846        -0.070254
 H        -0.632689         2.469028         1.693526
 H        -1.769969         2.525597        -0.007088
 H        -0.603841         0.677859         3.060541
 H        -1.588067        -0.777408         2.688247
 H        -4.346857         0.911544         2.657206
 H        -3.835218         2.679263         2.648019
 H        -5.268601         1.460330         0.569456
 H        -4.131918         2.893987         0.263215
 H        -2.889783        -0.821832         0.526994
