19
Iteration:  1294
 O         0.042056         0.026272        -0.061030
 C        -0.975670         0.514204         0.700553
 C        -1.259840         1.945503         1.099949
 C        -2.399212         1.124291         1.806732
 C        -1.276246         0.055576         2.222934
 C        -3.790734         1.831144         1.978689
 C        -4.288425         1.690088         0.515596
 O        -3.368479         1.184426        -0.396190
 C        -2.596831         0.277215         0.464071
 H         0.875858         0.496874         0.093050
 H        -0.520052         2.403480         1.854086
 H        -1.636979         2.752183         0.383359
 H        -0.528271         0.364460         3.006690
 H        -1.633588        -0.934869         2.410910
 H        -4.496901         1.267153         2.764891
 H        -3.558733         2.920492         2.060119
 H        -5.103204         1.014817         0.502080
 H        -4.581287         2.786807         0.382003
 H        -3.030547        -0.742866         0.524501
