19
Iteration:  2303charge 0 multiplicity 1
 O         0.069477        -0.080696        -0.091335
 C        -0.938588         0.517909         0.667427
 C        -1.222231         2.043336         0.898311
 C        -2.300908         1.296027         1.677186
 C        -1.383962         0.233238         2.264431
 C        -3.736439         1.660480         2.079835
 C        -4.508949         1.526367         0.614214
 O        -3.395399         1.162183        -0.307355
 C        -2.461078         0.411543         0.491609
 H         0.927403         0.049963         0.401955
 H        -0.586307         2.638351         1.639886
 H        -1.446110         2.542138        -0.052139
 H        -0.585925         0.578585         2.915505
 H        -1.852241        -0.658344         2.423094
 H        -4.068765         0.913684         2.831229
 H        -3.837807         2.695869         2.488100
 H        -5.358108         0.695021         0.617977
 H        -4.868982         2.529892         0.172403
 H        -2.959539        -0.595102         0.752731
