19
Iteration:  4536
 O        -0.064250         0.061810        -0.214617
 C        -0.987090         0.579730         0.762640
 C        -1.215073         2.106837         1.123161
 C        -2.325429         1.138120         1.817716
 C        -1.191977         0.219472         2.346371
 C        -3.860487         1.638814         1.869766
 C        -4.393762         1.669498         0.464217
 O        -3.341214         0.928723        -0.383195
 C        -2.495793         0.370730         0.561651
 H         0.783844         0.353631         0.142657
 H        -0.390343         2.658091         1.747464
 H        -1.535341         2.709808         0.300324
 H        -0.507300         0.708628         3.050324
 H        -1.503114        -0.735937         2.736282
 H        -4.415353         1.055107         2.616290
 H        -3.881528         2.602222         2.451955
 H        -5.312773         0.996257         0.414352
 H        -4.626185         2.671413        -0.016110
 H        -2.969283        -0.594150         0.899014
