19
Iteration:  2321charge 0 multiplicity 1
 O         0.018601        -0.114814         0.051840
 C        -1.001281         0.583425         0.688011
 C        -1.148001         2.050508         0.897475
 C        -2.351325         1.203095         1.735655
 C        -1.199417         0.292739         2.154433
 C        -3.808075         1.672013         2.044002
 C        -4.413166         1.564504         0.669812
 O        -3.445631         1.188657        -0.354037
 C        -2.568654         0.355682         0.437476
 H         0.956630         0.148157         0.222055
 H        -0.311905         2.486954         1.403059
 H        -1.477445         2.710552         0.122547
 H        -0.416377         0.731863         2.859062
 H        -1.360544        -0.872121         2.362447
 H        -4.272911         0.843151         2.677770
 H        -3.998151         2.612299         2.542656
 H        -5.155758         0.813915         0.537464
 H        -4.977778         2.355771         0.257902
 H        -2.758837        -0.713159         0.462334
