19
Iteration:  1506
 O         0.065593         0.166226        -0.174353
 C        -0.954383         0.457894         0.738367
 C        -1.353378         1.957751         1.012866
 C        -2.445986         1.058676         1.818541
 C        -1.292248         0.115046         2.355980
 C        -3.850282         1.515131         1.993277
 C        -4.123328         2.090665         0.487493
 O        -3.332989         1.100871        -0.341560
 C        -2.629730         0.271611         0.506077
 H         0.300812        -0.776046        -0.168608
 H        -0.606862         2.326319         1.778207
 H        -1.564423         2.615989         0.196287
 H        -0.624574         0.498685         3.098595
 H        -1.642459        -0.912324         2.554306
 H        -4.362461         0.564379         2.425577
 H        -3.862126         2.386132         2.660601
 H        -5.092340         1.899817         0.124042
 H        -3.875892         3.181820         0.400016
 H        -3.077040        -0.694074         0.365804
