19
Iteration:  3827
 O         0.036428        -0.141490        -0.071445
 C        -1.000785         0.610479         0.651394
 C        -1.275004         2.174009         1.050013
 C        -2.344849         1.275562         1.750526
 C        -1.199351         0.315506         2.184707
 C        -3.792952         1.495338         2.006520
 C        -4.309719         1.743060         0.590917
 O        -3.489590         1.009066        -0.381339
 C        -2.507175         0.300155         0.472465
 H         0.825935        -0.084593         0.528285
 H        -0.652350         2.533857         1.888972
 H        -1.536799         3.041457         0.423824
 H        -0.454074         0.654013         3.016774
 H        -1.564955        -0.663744         2.558526
 H        -4.092348         0.568787         2.561908
 H        -4.103177         2.384456         2.554279
 H        -5.366200         1.494067         0.491099
 H        -4.233480         2.874833         0.388833
 H        -2.896799        -0.701187         0.475673
