19
Iteration:  4957
 O         0.223904         0.083574         0.078540
 C        -0.881717         0.576423         0.676990
 C        -1.279306         2.015252         1.054046
 C        -2.393378         1.081448         1.718825
 C        -1.245460         0.173039         2.191114
 C        -3.757913         1.740528         1.965793
 C        -4.402356         1.753950         0.587446
 O        -3.508669         0.997001        -0.367028
 C        -2.634660         0.272832         0.444942
 H         0.609931         0.679791        -0.559982
 H        -0.583495         2.547239         1.772959
 H        -1.592466         2.730189         0.263383
 H        -0.635654         0.340282         3.098086
 H        -1.517907        -0.840482         2.429420
 H        -4.405743         1.069322         2.574122
 H        -3.765747         2.714888         2.420331
 H        -5.347687         1.175535         0.445392
 H        -4.637998         2.670924         0.116312
 H        -2.904857        -0.784365         0.523201
