19
Iteration:  4782charge 0 multiplicity 1
 O         0.271368         0.209373         0.039393
 C        -0.926797         0.599119         0.681911
 C        -1.476358         2.031425         0.968276
 C        -2.491048         1.047812         1.702559
 C        -1.296467         0.163821         2.168098
 C        -3.748736         1.662545         2.046091
 C        -4.199803         1.896156         0.517356
 O        -3.466632         0.938155        -0.335092
 C        -2.629430         0.171139         0.550691
 H         0.535286        -0.664292         0.327403
 H        -0.783726         2.669641         1.640017
 H        -1.817714         2.581835         0.084369
 H        -0.601587         0.717263         2.829807
 H        -1.450449        -0.857751         2.257888
 H        -4.399630         0.895719         2.548586
 H        -3.618260         2.621747         2.557579
 H        -5.274906         1.825952         0.226940
 H        -3.806705         2.862760         0.218511
 H        -2.913027        -0.918305         0.556325
