19
Iteration:  3963
 O         0.115955        -0.041680        -0.049231
 C        -0.956319         0.480424         0.712294
 C        -1.375618         1.969441         0.938356
 C        -2.430822         1.185368         1.736648
 C        -1.261386         0.355266         2.258289
 C        -3.830567         1.554642         2.045888
 C        -4.316576         1.773300         0.595138
 O        -3.344438         1.125921        -0.360942
 C        -2.495028         0.287564         0.522948
 H         0.293472         0.413752        -0.875150
 H        -0.557104         2.537388         1.465046
 H        -1.666176         2.431378         0.011108
 H        -0.529277         0.815025         2.896564
 H        -1.456935        -0.628983         2.777100
 H        -4.315553         0.701566         2.548888
 H        -3.915364         2.453833         2.714284
 H        -5.363653         1.455913         0.321820
 H        -4.366638         2.891955         0.398154
 H        -2.945479        -0.737718         0.726410
