19
Iteration:   456
 O         0.124619        -0.026162         0.016106
 C        -0.941016         0.533681         0.725232
 C        -1.269448         1.972665         1.008484
 C        -2.443817         1.140866         1.763528
 C        -1.270646         0.252920         2.285323
 C        -3.843307         1.683178         2.007610
 C        -4.308944         1.729618         0.557283
 O        -3.355558         1.168997        -0.407255
 C        -2.518610         0.365510         0.439582
 H        -0.503517        -0.642421        -0.478635
 H        -0.549180         2.467032         1.713543
 H        -1.594973         2.491629         0.093648
 H        -0.475390         0.521136         3.026541
 H        -1.562519        -0.845610         2.584341
 H        -4.453141         0.859354         2.473835
 H        -3.857767         2.599176         2.585699
 H        -5.218556         1.080349         0.405824
 H        -4.527139         2.712395         0.110719
 H        -2.881958        -0.702130         0.435052
