19
Iteration:   257charge 0 multiplicity 1
 O         0.188503         0.180742        -0.144274
 C        -0.949789         0.399588         0.722138
 C        -1.380504         1.879459         1.082172
 C        -2.463119         1.136978         1.826303
 C        -1.197250         0.160964         2.239984
 C        -3.932771         1.826370         1.896005
 C        -4.183094         1.925175         0.467228
 O        -3.417089         0.960392        -0.316953
 C        -2.592862         0.220107         0.574186
 H         0.241104        -0.747731        -0.019297
 H        -0.725906         2.519135         1.824432
 H        -1.664089         2.661412         0.284320
 H        -0.406007         0.706186         2.920031
 H        -1.293454        -0.877861         2.748347
 H        -4.699504         1.279009         2.515193
 H        -3.843892         2.785788         2.449299
 H        -5.235171         1.735403         0.208416
 H        -3.906333         2.878163         0.066282
 H        -2.893727        -0.824889         0.815988
