19
Iteration:  4189charge 0 multiplicity 1
 O         0.149489         0.027283        -0.034520
 C        -0.978334         0.534678         0.640987
 C        -1.393621         1.956694         1.028352
 C        -2.450263         1.020114         1.834289
 C        -1.154012         0.256836         2.267198
 C        -3.920343         1.691108         2.024083
 C        -4.178046         1.985178         0.520132
 O        -3.444423         0.942315        -0.387660
 C        -2.520829         0.213490         0.541456
 H         0.447982         0.771507        -0.616552
 H        -0.803515         2.722131         1.578509
 H        -1.851690         2.416593         0.204006
 H        -0.532107         0.958529         2.777838
 H        -1.146651        -0.842903         2.534852
 H        -4.723917         1.105255         2.462105
 H        -3.901184         2.506852         2.790569
 H        -5.225018         1.788542         0.212710
 H        -4.025348         2.967033         0.075808
 H        -2.850937        -0.860353         0.595663
