19
Iteration:  3216
 O        -0.042675        -0.188441        -0.020492
 C        -0.896048         0.553617         0.694977
 C        -1.205708         2.104787         0.985435
 C        -2.366246         1.314981         1.678371
 C        -1.206879         0.276718         2.207068
 C        -3.874343         1.575404         2.103335
 C        -4.508340         1.547738         0.571410
 O        -3.370933         1.168986        -0.342804
 C        -2.444721         0.434005         0.439479
 H         0.873475        -0.014445         0.220175
 H        -0.478348         2.641592         1.577398
 H        -1.655123         2.669440         0.145542
 H        -0.410479         0.818911         2.785588
 H        -1.150592        -0.863381         2.478679
 H        -4.198200         0.827157         2.817315
 H        -3.832337         2.549712         2.603203
 H        -5.471986         0.923528         0.234783
 H        -4.750313         2.693362         0.291716
 H        -2.764875        -0.663798         0.628701
