19
Iteration:  4047
 O         0.095596         0.056137        -0.020003
 C        -0.974669         0.455316         0.739784
 C        -1.190325         1.950701         1.101258
 C        -2.368646         1.230674         1.759069
 C        -1.248728         0.156053         2.261395
 C        -3.801273         1.784405         1.938834
 C        -4.408989         1.564695         0.587338
 O        -3.456341         1.056220        -0.351882
 C        -2.506989         0.403780         0.391439
 H         0.091501         0.549615        -0.881796
 H        -0.406903         2.362144         1.764194
 H        -1.340825         2.646495         0.223141
 H        -0.433238         0.739622         2.780411
 H        -1.724474        -0.812051         2.564823
 H        -4.324442         1.411190         2.849158
 H        -3.786135         2.872355         2.205312
 H        -5.396647         0.958634         0.505488
 H        -4.722853         2.580018         0.242126
 H        -2.665628        -0.700691         0.486363
