19
Iteration:  2460charge 0 multiplicity 1
 O         0.082557         0.007879        -0.080386
 C        -0.972155         0.539547         0.638790
 C        -1.288767         1.992971         0.892398
 C        -2.347604         1.161224         1.734386
 C        -1.173798         0.360646         2.222368
 C        -3.844677         1.577322         2.017227
 C        -4.291810         1.894768         0.567126
 O        -3.479937         0.989167        -0.219557
 C        -2.619924         0.206768         0.535668
 H         0.847116         0.241631         0.490680
 H        -0.514806         2.543484         1.531006
 H        -1.471530         2.569939        -0.048926
 H        -0.337578         0.799039         2.659555
 H        -1.257516        -0.697529         2.496683
 H        -4.316455         0.655953         2.386095
 H        -3.959953         2.270638         2.851844
 H        -5.375031         1.705765         0.328105
 H        -4.220924         2.984703         0.377012
 H        -3.055323        -0.871634         0.564706
