19
Iteration:  4127
 O         0.179169         0.010788         0.013919
 C        -0.924644         0.532594         0.688571
 C        -1.181684         2.077554         1.067732
 C        -2.311144         1.289828         1.720636
 C        -1.361055         0.209370         2.161907
 C        -3.854200         1.631477         1.989882
 C        -4.366293         1.726820         0.553359
 O        -3.503562         0.985276        -0.318081
 C        -2.514372         0.321657         0.496254
 H         0.055439        -0.112835        -0.956386
 H        -0.552906         2.634931         1.822968
 H        -1.441203         2.668935         0.215544
 H        -0.612670         0.320123         2.907547
 H        -1.705157        -0.847038         2.379214
 H        -4.263942         0.773665         2.533596
 H        -3.967771         2.620885         2.513778
 H        -5.440263         1.413175         0.452419
 H        -4.398170         2.803868         0.282386
 H        -2.795918        -0.726068         0.714037
