19
Iteration:  4504
 O         0.035255         0.050621        -0.112053
 C        -0.969584         0.558015         0.710811
 C        -1.323925         2.132447         0.988001
 C        -2.468772         1.104852         1.757736
 C        -1.312693         0.281459         2.238910
 C        -3.825068         1.644473         2.041917
 C        -4.244794         1.786360         0.572018
 O        -3.333122         0.878588        -0.322706
 C        -2.473535         0.270103         0.495603
 H         0.761717         0.734263        -0.093871
 H        -0.589016         2.591667         1.753321
 H        -1.638668         2.624708         0.101888
 H        -0.665653         0.748429         2.950499
 H        -1.654987        -0.693924         2.569622
 H        -4.500860         0.865435         2.415920
 H        -3.817501         2.644786         2.550875
 H        -5.157703         1.259706         0.331887
 H        -4.231394         2.747024         0.061556
 H        -2.798608        -0.773129         0.787169
