19
Iteration:  3698
 O         0.089380        -0.006494         0.022359
 C        -0.927081         0.519467         0.704010
 C        -1.147684         2.009705         1.015559
 C        -2.372495         1.208499         1.679801
 C        -1.300237         0.207979         2.197106
 C        -3.761860         1.706550         1.946804
 C        -4.455875         1.564366         0.674172
 O        -3.431092         1.097501        -0.375012
 C        -2.555422         0.376614         0.479933
 H         0.410939         0.759541        -0.455134
 H        -0.561286         2.543124         1.771525
 H        -1.451716         2.517861         0.088651
 H        -0.484020         0.684836         2.815228
 H        -1.610472        -0.689723         2.553191
 H        -4.326556         1.045714         2.634147
 H        -3.791654         2.705272         2.360550
 H        -5.330595         0.893199         0.796937
 H        -4.722937         2.606152         0.289075
 H        -2.892824        -0.686408         0.553732
