19
Iteration:  1784
 O        -0.120072         0.086664        -0.204455
 C        -0.989240         0.562698         0.728962
 C        -1.303926         1.961402         1.163749
 C        -2.417731         1.087073         1.861004
 C        -1.345534         0.170435         2.315165
 C        -3.805989         1.570343         1.947390
 C        -4.072188         1.910468         0.476890
 O        -3.402999         1.069429        -0.369833
 C        -2.469922         0.247058         0.488309
 H         0.820075         0.329003        -0.047485
 H        -0.515520         2.304809         1.905640
 H        -1.552263         2.704695         0.413050
 H        -0.644808         0.566070         3.026980
 H        -1.584425        -0.895367         2.455401
 H        -4.433029         0.805242         2.403460
 H        -3.759286         2.575438         2.478499
 H        -5.115937         1.906918         0.166392
 H        -3.709273         2.915608         0.340348
 H        -2.771600        -0.868565         0.398532
