19
Iteration:  4036
 O         0.110895         0.044491         0.031165
 C        -0.906563         0.532631         0.765188
 C        -1.118102         1.989913         1.091400
 C        -2.364347         1.184398         1.716775
 C        -1.294246         0.147683         2.178697
 C        -3.710615         1.781655         1.949069
 C        -4.521730         1.644676         0.576546
 O        -3.551417         1.006339        -0.384268
 C        -2.458983         0.378880         0.463021
 H         0.119315         0.540317        -0.830735
 H        -0.501134         2.473907         1.856455
 H        -1.491749         2.700174         0.297599
 H        -0.632150         0.382285         3.075753
 H        -1.396467        -0.953305         2.372081
 H        -4.346985         1.255901         2.692182
 H        -3.614905         2.882333         2.056797
 H        -5.403255         0.908792         0.708451
 H        -4.756858         2.646165         0.159001
 H        -2.909037        -0.613542         0.511331
