19
Iteration:  3372charge 0 multiplicity 1
 O         0.111013        -0.028891         0.031623
 C        -0.936829         0.574855         0.679644
 C        -1.369338         1.992105         0.885067
 C        -2.447853         1.140289         1.793432
 C        -1.155121         0.323324         2.264414
 C        -3.857738         1.576511         2.096344
 C        -4.319623         1.845878         0.563994
 O        -3.444936         1.111020        -0.359792
 C        -2.478639         0.185951         0.474409
 H        -0.014672         0.139890        -0.916610
 H        -0.651729         2.623897         1.403886
 H        -1.703166         2.493643         0.012859
 H        -0.186939         0.735197         2.733810
 H        -1.237387        -0.693404         2.650524
 H        -4.282357         0.799963         2.730846
 H        -3.875979         2.547887         2.594716
 H        -5.230176         1.284175         0.396220
 H        -4.290830         2.899764         0.322412
 H        -2.881411        -0.855482         0.376588
