19
Iteration:  4218charge 0 multiplicity 1
 O        -0.030250         0.030589        -0.117698
 C        -1.041749         0.593141         0.681456
 C        -1.250692         2.100482         1.073198
 C        -2.316225         1.277080         1.747830
 C        -1.376733         0.234790         2.292586
 C        -3.791015         1.590351         1.998708
 C        -4.179246         1.840430         0.512149
 O        -3.345928         0.876144        -0.343918
 C        -2.534450         0.207109         0.547470
 H         0.429497         0.787256        -0.470740
 H        -0.539289         2.606485         1.722241
 H        -1.635186         2.749830         0.185567
 H        -0.683709         0.378799         3.216962
 H        -1.730279        -0.771063         2.479092
 H        -4.209925         0.553821         2.227848
 H        -4.067351         2.326476         2.742169
 H        -5.207187         1.588678         0.193444
 H        -4.058397         2.870915         0.086358
 H        -2.876153        -0.768028         0.895496
