19
Iteration:  2459
 O         0.078882         0.008493        -0.078307
 C        -0.977297         0.542772         0.638699
 C        -1.294177         1.998470         0.898865
 C        -2.337194         1.159557         1.734573
 C        -1.184729         0.358823         2.215354
 C        -3.838145         1.573593         2.010680
 C        -4.294012         1.906485         0.568592
 O        -3.475832         0.975885        -0.221070
 C        -2.613210         0.202887         0.534429
 H         0.844559         0.243424         0.469794
 H        -0.518873         2.534408         1.527249
 H        -1.504377         2.596769        -0.039466
 H        -0.349627         0.771563         2.673241
 H        -1.225330        -0.654422         2.506419
 H        -4.334234         0.680516         2.404556
 H        -3.944867         2.257037         2.885877
 H        -5.380703         1.721290         0.333161
 H        -4.195148         3.003845         0.364651
 H        -3.059906        -0.862661         0.582971
