19
Iteration:  2695
 O        -0.098444         0.116086        -0.220807
 C        -0.961734         0.578771         0.729253
 C        -1.342803         2.047221         1.083933
 C        -2.409348         1.157397         1.891927
 C        -1.059785         0.244774         2.243814
 C        -3.763418         1.725162         2.003075
 C        -4.151417         1.830187         0.441543
 O        -3.501886         0.802116        -0.335107
 C        -2.629742         0.182343         0.602762
 H         0.797612         0.288052         0.072353
 H        -0.656455         2.546539         1.767462
 H        -1.671610         2.662444         0.202349
 H        -0.216585         0.761226         2.816743
 H        -1.338085        -0.664122         2.711056
 H        -4.353633         1.022083         2.516914
 H        -4.094136         2.694788         2.372794
 H        -5.271316         1.917045         0.140390
 H        -3.789357         2.719488        -0.060487
 H        -2.474280        -0.882611         0.532773
