19
Iteration:  3098
 O        -0.010572        -0.041078        -0.179628
 C        -0.974746         0.500055         0.731436
 C        -1.254454         1.969034         0.948571
 C        -2.324733         1.241869         1.782985
 C        -1.300802         0.316995         2.344283
 C        -3.751887         1.531522         2.038964
 C        -4.397274         1.760206         0.531912
 O        -3.348571         1.097239        -0.334105
 C        -2.509547         0.331821         0.545233
 H         0.778291         0.541541        -0.178335
 H        -0.649782         2.583920         1.614629
 H        -1.725701         2.569862         0.178343
 H        -0.396737         0.654982         2.865070
 H        -1.709952        -0.589131         2.691636
 H        -4.288963         0.664504         2.432835
 H        -3.949070         2.481219         2.546796
 H        -5.287447         1.227665         0.338557
 H        -4.417201         2.745924         0.080634
 H        -2.923776        -0.642760         0.701580
