19
Iteration:  1345
 O        -0.125870         0.012337        -0.193281
 C        -1.027055         0.527952         0.746622
 C        -1.240530         2.070527         1.210671
 C        -2.379197         1.226414         1.802640
 C        -1.365760         0.104369         2.287649
 C        -3.719930         1.627202         1.965368
 C        -4.354020         1.647891         0.536136
 O        -3.207812         1.130713        -0.460661
 C        -2.470397         0.434529         0.448516
 H         0.498777        -0.514164         0.272355
 H        -0.438207         2.427128         1.873373
 H        -1.500951         2.615199         0.373524
 H        -0.689444         0.530430         3.040079
 H        -1.898245        -0.886533         2.497695
 H        -4.125845         1.157602         2.826353
 H        -3.580902         2.687592         2.292989
 H        -5.283541         0.924397         0.493170
 H        -4.564640         2.667877         0.220965
 H        -2.873782        -0.600678         0.722453
