19
Iteration:  4366charge 0 multiplicity 1
 O         0.050984         0.027965        -0.004618
 C        -1.002969         0.555051         0.746482
 C        -1.320283         2.143313         0.981678
 C        -2.382494         1.185830         1.739170
 C        -1.284647         0.182632         2.373985
 C        -3.702566         1.686158         2.035939
 C        -4.365005         1.580597         0.509290
 O        -3.320607         1.085986        -0.414937
 C        -2.468473         0.328185         0.429525
 H        -0.461140        -0.239882        -0.783403
 H        -0.649090         2.723657         1.596647
 H        -1.821770         2.631498         0.103963
 H        -0.572998         0.393465         3.147898
 H        -1.773124        -0.888605         2.489284
 H        -4.230992         1.159344         2.827548
 H        -3.656060         2.774338         2.300178
 H        -5.102171         0.720457         0.540901
 H        -4.708231         2.626282         0.285599
 H        -2.860916        -0.702480         0.546988
