19
Iteration:  2429charge 0 multiplicity 1
 O        -0.026979         0.023873        -0.172139
 C        -0.955283         0.620324         0.735781
 C        -1.396908         2.081039         0.990232
 C        -2.382700         1.157257         1.817779
 C        -1.226051         0.259729         2.234193
 C        -3.789383         1.690319         2.084651
 C        -4.091536         1.810551         0.498534
 O        -3.540532         0.851488        -0.299718
 C        -2.497034         0.254158         0.493466
 H         0.903610         0.327350        -0.115096
 H        -0.858451         2.780206         1.699329
 H        -1.760432         2.466679         0.023619
 H        -0.433582         0.472202         2.993062
 H        -1.376199        -0.886638         2.467184
 H        -4.442623         1.036990         2.702034
 H        -3.893049         2.634644         2.572259
 H        -5.178319         1.730920         0.284732
 H        -3.571380         2.756518         0.273991
 H        -2.732343        -0.855163         0.525142
