19
Iteration:  4461
 O         0.202649         0.062755         0.018048
 C        -0.967733         0.506925         0.664087
 C        -1.349522         2.007104         0.937232
 C        -2.426289         1.105217         1.679966
 C        -1.225466         0.301516         2.269813
 C        -3.876016         1.615460         2.011339
 C        -4.267466         1.932235         0.572059
 O        -3.509590         0.891252        -0.335633
 C        -2.534203         0.230192         0.485005
 H         0.752403         0.888418         0.015573
 H        -0.617840         2.488874         1.637002
 H        -1.824442         2.498168         0.136009
 H        -0.652584         1.002279         2.832216
 H        -1.125497        -0.725472         2.612749
 H        -4.482903         0.784542         2.428623
 H        -3.784597         2.470794         2.744460
 H        -5.317315         1.810274         0.474345
 H        -3.920266         2.888189         0.210782
 H        -2.838062        -0.808615         0.687541
