19
Iteration:  4574
 O         0.029832         0.030599        -0.084930
 C        -1.007258         0.561833         0.681161
 C        -1.346896         2.102615         1.015292
 C        -2.382577         1.158078         1.769351
 C        -1.281294         0.225434         2.305266
 C        -3.757217         1.680662         1.990358
 C        -4.381801         1.537195         0.582133
 O        -3.267150         1.118877        -0.396519
 C        -2.518923         0.308437         0.483456
 H         0.899671         0.150128         0.379909
 H        -0.716109         2.714441         1.620270
 H        -1.896595         2.580805         0.166010
 H        -0.547329         0.659567         3.002148
 H        -1.691622        -0.762269         2.578443
 H        -4.369915         1.181957         2.755668
 H        -3.506832         2.710980         2.088607
 H        -5.130137         0.760275         0.557339
 H        -4.802320         2.426335         0.162905
 H        -2.806296        -0.745231         0.596310
