19
Iteration:  4124
 O         0.161811        -0.001319         0.001024
 C        -0.908927         0.530314         0.686656
 C        -1.176399         2.060584         1.100275
 C        -2.365596         1.285089         1.709011
 C        -1.343029         0.225867         2.154088
 C        -3.822868         1.612482         1.970459
 C        -4.360089         1.705456         0.546545
 O        -3.496081         0.997183        -0.307234
 C        -2.517402         0.352593         0.500510
 H         0.131075        -0.146097        -0.971770
 H        -0.529595         2.645865         1.808907
 H        -1.417543         2.688165         0.248218
 H        -0.565113         0.445241         2.930522
 H        -1.695190        -0.856185         2.408378
 H        -4.335616         0.801026         2.546566
 H        -3.994587         2.622206         2.479220
 H        -5.448919         1.458471         0.459133
 H        -4.494995         2.771396         0.284064
 H        -2.842666        -0.675713         0.833010
