19
Iteration:  2055charge 0 multiplicity 1
 O         0.038452        -0.009347        -0.194463
 C        -0.929507         0.555879         0.707226
 C        -1.305007         2.053542         0.990425
 C        -2.409758         1.130952         1.803991
 C        -1.217743         0.205425         2.268836
 C        -3.850704         1.644100         2.025453
 C        -4.244867         1.926708         0.508616
 O        -3.426982         0.967570        -0.316674
 C        -2.565054         0.260893         0.555954
 H         0.895315         0.214211         0.263822
 H        -0.715013         2.741100         1.560137
 H        -1.730242         2.439801         0.112294
 H        -0.476139         0.661739         2.964825
 H        -1.351173        -0.868658         2.525612
 H        -4.468161         0.844835         2.383415
 H        -3.956445         2.544386         2.685674
 H        -5.263737         1.606403         0.537623
 H        -4.084515         2.945357         0.184563
 H        -2.844176        -0.838247         0.761895
