19
Iteration:  1999charge 0 multiplicity 1
 O         0.183138        -0.044719         0.007266
 C        -0.917216         0.564221         0.702774
 C        -1.339970         2.005053         1.039652
 C        -2.387352         1.121124         1.673396
 C        -1.285933         0.241816         2.210076
 C        -3.747957         1.650836         2.031741
 C        -4.363461         1.803848         0.600524
 O        -3.498529         1.075515        -0.349354
 C        -2.481690         0.334199         0.422107
 H        -0.307989        -0.553889        -0.643507
 H        -0.870259         2.614022         1.807175
 H        -1.582846         2.584576         0.207263
 H        -0.496018         0.618396         2.984654
 H        -1.523702        -0.827346         2.389126
 H        -4.207402         1.090630         2.822860
 H        -3.612881         2.671840         2.423499
 H        -5.384544         1.534544         0.714437
 H        -4.333349         2.849114         0.324139
 H        -2.825054        -0.770845         0.414495
