19
Iteration:  3548
 O         0.105989        -0.023250        -0.003419
 C        -1.027880         0.607907         0.647250
 C        -1.401486         2.076718         0.935856
 C        -2.404238         1.146564         1.815358
 C        -1.195694         0.286860         2.180860
 C        -3.806798         1.549410         2.060261
 C        -4.137040         1.895109         0.528267
 O        -3.499396         0.890906        -0.294824
 C        -2.485685         0.290992         0.532527
 H         0.192602         0.438529        -0.844040
 H        -0.640774         2.670725         1.361656
 H        -1.862978         2.664654         0.149569
 H        -0.589736         0.872573         2.983584
 H        -1.524089        -0.721035         2.600070
 H        -4.470004         0.749741         2.391563
 H        -3.944083         2.383666         2.726490
 H        -5.224344         1.730579         0.463560
 H        -3.909929         2.828153         0.091050
 H        -2.703995        -0.795396         0.585039
