19
Iteration:   513charge 0 multiplicity 1
 O         0.058783        -0.078033        -0.018784
 C        -0.963828         0.598027         0.748131
 C        -1.249442         2.060702         1.062999
 C        -2.400596         1.131558         1.653790
 C        -1.360752         0.181220         2.360273
 C        -3.797789         1.665854         2.057765
 C        -4.304149         1.853925         0.501658
 O        -3.468079         0.958336        -0.430059
 C        -2.418066         0.319832         0.457227
 H         0.256047         0.666344        -0.581592
 H        -0.649665         2.740145         1.634414
 H        -1.506241         2.574441         0.072590
 H        -0.625753         0.680520         3.017261
 H        -1.627738        -0.943737         2.633953
 H        -4.392278         0.971155         2.594362
 H        -3.581873         2.566020         2.611110
 H        -5.318086         1.681966         0.327683
 H        -4.058915         2.960768         0.366754
 H        -2.494030        -0.770429         0.536846
