19
Iteration:  3389charge 0 multiplicity 1
 O         0.099650        -0.067972         0.031345
 C        -0.987498         0.573306         0.690298
 C        -1.432460         2.096022         0.961602
 C        -2.369208         1.133817         1.711284
 C        -1.177012         0.250511         2.148963
 C        -3.754037         1.673945         2.024230
 C        -4.371089         1.656654         0.610583
 O        -3.311479         1.095819        -0.310904
 C        -2.528876         0.358717         0.496315
 H        -0.175421        -0.352705        -0.859847
 H        -0.785341         2.769607         1.579637
 H        -1.884177         2.666794         0.070876
 H        -0.656501         0.610756         3.045544
 H        -1.346947        -0.830463         2.458172
 H        -4.447638         1.014857         2.586086
 H        -3.718615         2.650283         2.555939
 H        -5.319593         1.021097         0.548009
 H        -4.505196         2.747739         0.292476
 H        -2.797402        -0.700777         0.615541
