19
Iteration:  2221charge 0 multiplicity 1
 O        -0.039770         0.039641        -0.219861
 C        -1.021893         0.534938         0.730027
 C        -1.255036         2.001967         1.067850
 C        -2.393444         1.199297         1.722430
 C        -1.362638         0.247728         2.289055
 C        -3.676252         1.819597         2.051616
 C        -4.339785         1.597845         0.541273
 O        -3.298905         1.005973        -0.349893
 C        -2.516143         0.250632         0.560774
 H         0.586564         0.769642        -0.320743
 H        -0.517225         2.455667         1.658468
 H        -1.574973         2.546524         0.160036
 H        -0.737243         0.690277         3.110215
 H        -1.593650        -0.857137         2.659960
 H        -4.127226         1.253378         2.886457
 H        -3.686037         2.895959         2.306522
 H        -5.285020         0.969460         0.502631
 H        -4.536213         2.516765        -0.003803
 H        -2.807563        -0.841391         0.728872
