19
Iteration:  2409
 O        -0.071856         0.109119        -0.251036
 C        -0.982854         0.564666         0.652381
 C        -1.316020         2.012122         1.065874
 C        -2.382441         1.089164         1.784906
 C        -1.208061         0.228234         2.282753
 C        -3.804275         1.761777         1.946219
 C        -4.244069         1.892441         0.484723
 O        -3.410119         0.795329        -0.261814
 C        -2.485030         0.245794         0.646590
 H         0.689286         0.632380         0.119018
 H        -0.498142         2.441941         1.636646
 H        -1.615892         2.633070         0.260459
 H        -0.465680         0.612497         3.061946
 H        -1.441547        -0.861918         2.612100
 H        -4.480631         1.101708         2.548851
 H        -3.772044         2.672012         2.527439
 H        -5.288459         1.579390         0.375705
 H        -4.118231         2.911387         0.141294
 H        -2.709954        -0.776944         0.688490
