19
Iteration:   728charge 0 multiplicity 1
 O         0.044725        -0.024106        -0.031723
 C        -1.002482         0.492040         0.743773
 C        -1.114423         1.972969         1.095786
 C        -2.358075         1.288446         1.698003
 C        -1.343176         0.189598         2.282233
 C        -3.765675         1.823338         1.937115
 C        -4.473519         1.513827         0.541798
 O        -3.368104         1.142403        -0.400432
 C        -2.524776         0.361683         0.518393
 H         0.797404         0.572812         0.014387
 H        -0.283065         2.255565         1.738215
 H        -1.247938         2.609141         0.143642
 H        -0.500145         0.377364         2.884391
 H        -1.946411        -0.754330         2.421097
 H        -4.354489         1.115945         2.617777
 H        -3.702818         2.905715         2.228130
 H        -5.119692         0.611740         0.421532
 H        -5.009088         2.285298        -0.026030
 H        -2.953353        -0.613438         0.800160
