19
Iteration:   179charge 0 multiplicity 1
 O         0.054342         0.009047         0.090951
 C        -0.948470         0.506910         0.705699
 C        -1.298812         1.927807         0.990975
 C        -2.416375         1.161420         1.840022
 C        -1.090058         0.207885         2.286344
 C        -3.830789         1.639607         1.948776
 C        -4.330180         1.841084         0.467146
 O        -3.379878         1.099260        -0.429566
 C        -2.642281         0.306928         0.548999
 H        -0.094292        -0.145906        -0.846136
 H        -0.532266         2.655462         1.456737
 H        -1.668704         2.576107         0.103705
 H        -0.367281         0.852366         2.839645
 H        -1.162647        -0.936958         2.427236
 H        -4.337264         0.819359         2.447786
 H        -3.963985         2.679009         2.369544
 H        -5.365373         1.498180         0.256324
 H        -4.246096         2.873441         0.253314
 H        -2.847304        -0.747779         0.797575
