19
Iteration:  4158charge 0 multiplicity 1
 O         0.187020         0.130038         0.125076
 C        -0.977429         0.522427         0.685687
 C        -1.364395         1.981225         0.946941
 C        -2.385730         1.061678         1.716912
 C        -1.287507         0.194601         2.168638
 C        -3.776411         1.661453         2.018821
 C        -4.215187         1.876263         0.555380
 O        -3.510413         0.995207        -0.351417
 C        -2.558432         0.247723         0.510553
 H         0.184778         0.246310        -0.842986
 H        -0.806199         2.731336         1.573437
 H        -1.770902         2.342300         0.042141
 H        -0.581467         0.685124         2.837227
 H        -1.411734        -0.954715         2.345166
 H        -4.426008         1.033538         2.656725
 H        -3.546805         2.656452         2.521148
 H        -5.279937         1.574317         0.480173
 H        -3.964084         2.894607         0.278755
 H        -2.920017        -0.803480         0.636608
