19
Iteration:   626charge 0 multiplicity 1
 O         0.067162        -0.020899         0.013534
 C        -0.970804         0.532529         0.743515
 C        -1.240483         2.049434         0.972111
 C        -2.394496         1.279938         1.760285
 C        -1.207099         0.212906         2.198777
 C        -3.904355         1.534829         1.982431
 C        -4.325775         1.885343         0.491428
 O        -3.350663         1.039069        -0.354869
 C        -2.525727         0.361641         0.572350
 H        -0.015111        -1.021447        -0.026347
 H        -0.561401         2.690521         1.567533
 H        -1.557230         2.437987         0.038858
 H        -0.373495         0.526292         2.933500
 H        -1.600813        -0.731803         2.558847
 H        -4.348532         0.571901         2.255952
 H        -4.074726         2.393399         2.631858
 H        -5.238123         1.290296         0.214372
 H        -4.387020         2.871243         0.010740
 H        -2.955670        -0.631818         0.762741
