19
Iteration:  1425charge 0 multiplicity 1
 O         0.146421         0.044022         0.062833
 C        -0.942605         0.512692         0.685810
 C        -1.231231         1.947698         1.047312
 C        -2.446061         1.073070         1.710382
 C        -1.409147         0.082701         2.169042
 C        -3.757834         1.704294         2.112095
 C        -4.345539         1.832645         0.548278
 O        -3.363566         1.154113        -0.396979
 C        -2.523795         0.279783         0.406502
 H         0.203095         0.391475        -0.819272
 H        -0.648363         2.519990         1.760037
 H        -1.665209         2.737812         0.359825
 H        -0.792039         0.266436         3.072489
 H        -1.817773        -0.897972         2.312296
 H        -4.299027         1.109093         2.956990
 H        -3.612210         2.751138         2.504278
 H        -5.438133         1.565656         0.411094
 H        -4.189936         2.919326         0.277289
 H        -2.863503        -0.773777         0.493140
