19
Iteration:  1143charge 0 multiplicity 1
 O         0.087423         0.262061        -0.063189
 C        -0.953408         0.471767         0.753579
 C        -1.296753         1.978223         1.110907
 C        -2.350288         1.058869         1.779680
 C        -1.315187         0.059442         2.290216
 C        -3.816948         1.737482         1.951851
 C        -4.169645         1.998365         0.465867
 O        -3.477607         0.900317        -0.348251
 C        -2.576626         0.222978         0.495686
 H        -0.061905        -0.608931        -0.429277
 H        -0.598435         2.593198         1.731642
 H        -1.641697         2.624976         0.285213
 H        -0.445509         0.197887         2.998974
 H        -1.655931        -0.988056         2.187892
 H        -4.486258         1.227054         2.604496
 H        -3.713830         2.770148         2.249047
 H        -5.257802         2.019780         0.214552
 H        -3.841935         3.031660         0.130351
 H        -2.786469        -0.833941         0.575952
