19
Iteration:  1575charge 0 multiplicity 1
 O         0.208837         0.133866        -0.011668
 C        -0.958291         0.436213         0.729347
 C        -1.120732         1.944958         1.095356
 C        -2.393612         1.122541         1.715764
 C        -1.359363         0.038730         2.188380
 C        -3.789635         1.680514         2.018846
 C        -4.465550         1.923088         0.630307
 O        -3.445981         1.093318        -0.388374
 C        -2.532983         0.375330         0.371714
 H         0.084067        -0.755942        -0.325627
 H        -0.527495         2.236771         1.942443
 H        -1.434133         2.720579         0.323488
 H        -0.666097         0.218635         3.125088
 H        -1.962371        -0.922888         2.291147
 H        -4.460648         1.064313         2.596709
 H        -3.710043         2.713228         2.439265
 H        -5.516321         1.602844         0.474618
 H        -4.336951         2.881816         0.231889
 H        -2.705167        -0.685728         0.437514
