19
Iteration:  2308charge 0 multiplicity 1
 O         0.043877        -0.089647        -0.054116
 C        -0.935775         0.512905         0.691066
 C        -1.176767         2.059195         0.907294
 C        -2.362527         1.309710         1.677710
 C        -1.301242         0.266446         2.200060
 C        -3.740258         1.646387         2.084816
 C        -4.518350         1.524700         0.562990
 O        -3.423198         1.186422        -0.279142
 C        -2.454340         0.358503         0.474303
 H         0.790803         0.178202         0.486134
 H        -0.439458         2.586464         1.491479
 H        -1.502929         2.512178        -0.061348
 H        -0.610884         0.543845         3.037392
 H        -1.914427        -0.741535         2.397794
 H        -4.159316         0.904508         2.761182
 H        -3.747010         2.621018         2.559047
 H        -5.212819         0.769196         0.759199
 H        -4.828778         2.494688         0.278608
 H        -2.913395        -0.589454         0.571987
