19
Iteration:  4537
 O        -0.062742         0.060822        -0.216278
 C        -0.992109         0.585786         0.766394
 C        -1.211517         2.102755         1.123312
 C        -2.326060         1.137487         1.816664
 C        -1.189792         0.219811         2.336099
 C        -3.869518         1.638738         1.869766
 C        -4.388223         1.669395         0.460217
 O        -3.332573         0.928248        -0.378619
 C        -2.504265         0.373214         0.569305
 H         0.800488         0.344878         0.155543
 H        -0.405029         2.686897         1.737751
 H        -1.516624         2.730109         0.269751
 H        -0.518120         0.678734         3.014216
 H        -1.533392        -0.742485         2.745109
 H        -4.424933         1.069873         2.615233
 H        -3.869159         2.603700         2.482935
 H        -5.281731         0.995294         0.457579
 H        -4.669444         2.647421        -0.022001
 H        -2.959034        -0.613615         0.885033
