19
Iteration:  1021charge 0 multiplicity 1
 O         0.045591         0.098960        -0.137667
 C        -1.034818         0.533562         0.745209
 C        -1.224108         1.984304         1.149508
 C        -2.422509         1.227543         1.813957
 C        -1.218970        -0.018052         2.245048
 C        -3.868327         1.875989         1.907781
 C        -4.340163         1.640139         0.502993
 O        -3.287757         1.110431        -0.384080
 C        -2.571916         0.346773         0.529091
 H         0.415846        -0.810898        -0.028223
 H        -0.496395         2.270116         1.989527
 H        -1.531836         2.737067         0.442077
 H        -0.397443         0.293063         2.910731
 H        -1.480807        -1.143857         2.292403
 H        -4.487749         1.442905         2.688566
 H        -3.816694         2.922764         2.072205
 H        -5.103804         0.845607         0.560972
 H        -4.628152         2.639808         0.078442
 H        -2.905760        -0.661358         0.747325
