19
Iteration:   529
 O         0.062827         0.021845        -0.058291
 C        -0.908079         0.533986         0.741426
 C        -1.255497         2.003791         1.123063
 C        -2.414356         1.130102         1.772569
 C        -1.364586         0.238963         2.253437
 C        -3.748739         1.713495         1.928738
 C        -4.172802         1.847975         0.493438
 O        -3.542728         0.892582        -0.331865
 C        -2.533760         0.284054         0.423920
 H         0.751008         0.686465        -0.344355
 H        -0.606968         2.453284         1.944269
 H        -1.466037         2.786710         0.430438
 H        -0.762517         0.538840         3.131642
 H        -1.626820        -0.730976         2.559459
 H        -4.407922         1.030998         2.581255
 H        -3.760146         2.776404         2.260957
 H        -5.315499         1.692445         0.377417
 H        -3.967697         2.808785         0.077549
 H        -2.868691        -0.757357         0.517367
