19
Iteration:  3711charge 0 multiplicity 1
 O         0.142103         0.040708        -0.022669
 C        -0.999822         0.521335         0.690560
 C        -1.173306         1.960173         1.094446
 C        -2.386678         1.252687         1.730846
 C        -1.244142         0.168517         2.164767
 C        -3.781414         1.833755         2.084264
 C        -4.437653         1.601070         0.537229
 O        -3.487375         1.000705        -0.393425
 C        -2.556692         0.331560         0.456000
 H         0.698072         0.756974        -0.432702
 H        -0.354862         2.255550         1.718704
 H        -1.253184         2.821107         0.368463
 H        -0.566368         0.522552         2.964334
 H        -1.483860        -0.850976         2.366019
 H        -4.228539         1.290547         2.919031
 H        -3.791047         2.895676         2.330348
 H        -5.183166         0.742885         0.615627
 H        -4.924651         2.490454         0.099886
 H        -2.913312        -0.662629         0.741573
