19
Iteration:  4517
 O        -0.014591         0.047578        -0.174225
 C        -0.966138         0.611196         0.736185
 C        -1.291943         1.983121         1.104796
 C        -2.394663         1.231798         1.767032
 C        -1.283004         0.325981         2.335213
 C        -3.814988         1.649424         2.020569
 C        -4.269715         1.660249         0.437511
 O        -3.414132         0.940737        -0.384365
 C        -2.455706         0.239839         0.533369
 H         0.812632         0.519851        -0.186056
 H        -0.699234         2.587457         1.830273
 H        -1.457777         2.785453         0.320809
 H        -0.555577         0.718475         2.978411
 H        -1.553625        -0.749045         2.618919
 H        -4.308145         0.947592         2.702084
 H        -3.969926         2.633037         2.609000
 H        -5.312196         1.403041         0.457838
 H        -4.322015         2.718715         0.152465
 H        -2.544321        -0.846979         0.365506
