19
Iteration:   253charge 0 multiplicity 1
 O         0.164093         0.210681        -0.120947
 C        -0.963323         0.379722         0.709594
 C        -1.344247         1.853537         1.121998
 C        -2.445452         1.130538         1.799329
 C        -1.192754         0.169513         2.218695
 C        -3.915384         1.820700         1.883075
 C        -4.202937         1.934628         0.448973
 O        -3.449684         0.958665        -0.302932
 C        -2.560330         0.235851         0.624920
 H         0.328130        -0.801109        -0.019681
 H        -0.774646         2.480312         1.746862
 H        -1.586167         2.504125         0.280353
 H        -0.499237         0.719209         2.761605
 H        -1.401444        -0.781924         2.651801
 H        -4.548151         1.118744         2.407484
 H        -3.932104         2.823943         2.424952
 H        -5.291695         1.818307         0.186422
 H        -3.850263         2.890064        -0.007373
 H        -2.859772        -0.817095         0.804833
