19
Iteration:  2608charge 0 multiplicity 1
 O         0.098684        -0.105967        -0.040059
 C        -0.947842         0.542848         0.671668
 C        -1.249055         2.074029         0.917252
 C        -2.383451         1.193101         1.679066
 C        -1.160393         0.221419         2.207721
 C        -3.856079         1.713599         2.063875
 C        -4.529835         1.633034         0.587681
 O        -3.429713         1.099745        -0.242547
 C        -2.453103         0.308754         0.484244
 H         0.841703         0.504160        -0.104887
 H        -0.453705         2.396074         1.501795
 H        -1.520755         2.777144         0.121353
 H        -0.392006         0.743457         2.916693
 H        -1.492530        -0.800614         2.379609
 H        -4.388781         1.259313         2.862400
 H        -3.761619         2.789965         2.192681
 H        -5.534435         1.182261         0.577848
 H        -4.657991         2.682622         0.340757
 H        -2.866265        -0.726868         0.531095
