19
Iteration:  2581
 O        -0.004157        -0.038387        -0.096037
 C        -1.029269         0.560261         0.685251
 C        -1.289458         2.058829         1.049214
 C        -2.341528         1.258305         1.709933
 C        -1.294523         0.183943         2.284974
 C        -3.636039         1.869878         2.102647
 C        -4.357850         1.466228         0.527270
 O        -3.409977         1.094155        -0.384184
 C        -2.490509         0.286387         0.460037
 H         0.690820         0.602609        -0.241056
 H        -0.357705         2.485490         1.613136
 H        -1.692474         2.731865         0.274080
 H        -0.506485         0.500042         2.849209
 H        -1.676886        -0.834898         2.361408
 H        -4.174924         1.269746         2.894167
 H        -3.641757         2.938687         2.371933
 H        -5.007589         0.626826         0.967191
 H        -5.157151         2.155232         0.166185
 H        -3.058275        -0.616904         0.723500
