19
Iteration:  2844
 O         0.016736         0.121545        -0.218547
 C        -0.957926         0.517156         0.707005
 C        -1.203349         1.989078         1.018089
 C        -2.379348         1.271600         1.805824
 C        -1.263924         0.130847         2.326401
 C        -3.770511         1.907646         2.044594
 C        -4.409723         1.431605         0.600397
 O        -3.344972         1.073692        -0.415043
 C        -2.530462         0.321619         0.523663
 H         0.430765        -0.711008         0.005029
 H        -0.523950         2.675892         1.528074
 H        -1.645332         2.701823         0.273692
 H        -0.586022         0.258264         3.203567
 H        -1.772183        -0.906177         2.280865
 H        -4.292910         1.525007         3.006695
 H        -3.639678         2.998777         1.959123
 H        -5.192570         0.659764         0.666875
 H        -4.777792         2.392194         0.116745
 H        -3.039815        -0.587879         0.911149
