19
Iteration:   125
 O        -0.024318        -0.012870        -0.109702
 C        -0.940033         0.487400         0.770231
 C        -1.181895         2.086801         1.111959
 C        -2.333515         1.188604         1.775460
 C        -1.334678         0.182146         2.314523
 C        -3.750064         1.791662         1.958375
 C        -4.408986         1.627455         0.492510
 O        -3.453621         1.032157        -0.417381
 C        -2.449465         0.372721         0.447317
 H         0.840212         0.004542         0.292665
 H        -0.467978         2.583110         1.845896
 H        -1.525424         2.564523         0.126057
 H        -0.458067         0.465027         2.993341
 H        -1.670185        -0.789705         2.866000
 H        -4.403269         1.358627         2.735428
 H        -3.649576         2.878467         2.265940
 H        -5.274223         0.921530         0.519853
 H        -4.702893         2.530635        -0.033214
 H        -2.741303        -0.710009         0.503336
