19
Iteration:  2390charge 0 multiplicity 1
 O        -0.058629         0.155837        -0.259467
 C        -1.026765         0.471019         0.752188
 C        -1.263670         1.965003         1.071474
 C        -2.340455         1.260188         1.865939
 C        -1.227786         0.226735         2.288057
 C        -3.722991         1.742653         2.025309
 C        -4.237765         1.701366         0.432769
 O        -3.401784         0.906244        -0.341061
 C        -2.598332         0.198749         0.554613
 H         0.771659         0.671779        -0.082171
 H        -0.436353         2.451256         1.637735
 H        -1.553632         2.717822         0.333148
 H        -0.338890         0.647172         2.839229
 H        -1.435859        -0.721418         2.735272
 H        -4.335019         1.071369         2.700455
 H        -3.961881         2.809632         2.364684
 H        -5.324275         1.523163         0.407231
 H        -4.377846         2.768664         0.050204
 H        -3.110866        -0.773462         0.865723
