19
Iteration:  4093
 O        -0.051703        -0.059588        -0.026053
 C        -0.971864         0.546388         0.724685
 C        -1.269367         2.100295         1.060648
 C        -2.419003         1.220804         1.831490
 C        -1.175952         0.226033         2.284736
 C        -3.801797         1.672021         2.031493
 C        -4.375929         1.619827         0.523484
 O        -3.294851         1.166140        -0.405431
 C        -2.448126         0.239057         0.440398
 H         0.076873         0.119585        -0.956963
 H        -0.595868         2.815829         1.646214
 H        -1.716963         2.576525         0.224811
 H        -0.291566         0.594871         2.761068
 H        -1.569556        -0.858957         2.364354
 H        -4.463964         1.078565         2.663519
 H        -4.076003         2.723256         2.404322
 H        -5.238362         0.861294         0.487724
 H        -4.674690         2.647365         0.210947
 H        -2.832634        -0.797849         0.475358
