19
Iteration:  2253charge 0 multiplicity 1
 O        -0.083764         0.035968        -0.207531
 C        -1.022910         0.565089         0.773732
 C        -1.302364         2.038023         1.143562
 C        -2.379585         1.157047         1.809755
 C        -1.085192         0.113819         2.206413
 C        -3.788978         1.895790         1.855253
 C        -4.375627         1.570485         0.550453
 O        -3.313023         1.040411        -0.329821
 C        -2.532674         0.264950         0.618241
 H         0.787271         0.319776         0.110957
 H        -0.553419         2.567744         1.657586
 H        -1.744711         2.633507         0.323885
 H        -0.453259         0.649519         2.955923
 H        -1.399668        -1.033708         2.285724
 H        -4.375241         1.617926         2.713604
 H        -3.607602         2.978659         1.845402
 H        -5.247065         0.965330         0.562061
 H        -4.736568         2.496985         0.109231
 H        -2.953683        -0.727250         0.676842
