19
Iteration:  2076
 O        -0.087837         0.106279        -0.191156
 C        -0.993739         0.553953         0.659356
 C        -1.373430         2.073808         1.133826
 C        -2.394473         1.135680         1.729503
 C        -1.280234         0.278789         2.296981
 C        -3.742768         1.711089         2.057135
 C        -4.143684         1.803540         0.476275
 O        -3.422086         0.873822        -0.305728
 C        -2.475841         0.207848         0.453154
 H         0.501706        -0.543058         0.238742
 H        -0.599595         2.297789         1.835342
 H        -1.731455         2.843275         0.541991
 H        -0.509868         0.760497         3.034899
 H        -1.462421        -0.807280         2.581488
 H        -4.248635         1.149396         2.789666
 H        -3.663117         2.761352         2.386897
 H        -5.178420         1.709195         0.273402
 H        -3.777265         2.821180         0.259447
 H        -2.810022        -0.896248         0.458445
