19
Iteration:  2204
 O        -0.030514         0.027018        -0.090547
 C        -0.988415         0.496203         0.752605
 C        -1.181325         1.988291         0.898015
 C        -2.314524         1.204158         1.720119
 C        -1.285707         0.280563         2.350448
 C        -3.754490         1.633832         1.951648
 C        -4.331986         1.677055         0.592962
 O        -3.422568         1.040764        -0.320312
 C        -2.502670         0.308137         0.491327
 H         0.597737         0.728273        -0.319237
 H        -0.513543         2.502719         1.701619
 H        -1.423501         2.727531         0.129722
 H        -0.477255         0.601388         2.973312
 H        -1.790794        -0.565851         2.580576
 H        -4.448353         0.971769         2.562538
 H        -3.767376         2.618303         2.410486
 H        -5.310697         1.169295         0.639991
 H        -4.741008         2.672904         0.310237
 H        -3.043376        -0.619246         0.630726
