19
Iteration:  2199
 O         0.019581        -0.015110        -0.072923
 C        -0.996699         0.531655         0.742189
 C        -1.168675         1.981216         0.898073
 C        -2.332479         1.211989         1.738172
 C        -1.261385         0.278383         2.320554
 C        -3.753939         1.623438         2.004432
 C        -4.378708         1.704579         0.554360
 O        -3.448954         1.053197        -0.329008
 C        -2.519231         0.353035         0.503637
 H         0.657636         0.699512        -0.296952
 H        -0.495146         2.451641         1.553961
 H        -1.529204         2.610820         0.065146
 H        -0.352925         0.575407         2.904239
 H        -1.744282        -0.691563         2.809295
 H        -4.316526         0.827428         2.538749
 H        -3.942714         2.565906         2.577507
 H        -5.380907         1.136438         0.572097
 H        -4.647582         2.683979         0.135885
 H        -2.923246        -0.725732         0.567180
