19
Iteration:   904
 O        -0.009522        -0.058894        -0.044583
 C        -1.015442         0.539433         0.761428
 C        -1.275070         2.018585         1.050631
 C        -2.453889         1.151195         1.664696
 C        -1.328910         0.307934         2.297634
 C        -3.792409         1.626582         1.967461
 C        -4.208901         1.740253         0.543897
 O        -3.336147         1.106943        -0.391224
 C        -2.433495         0.256283         0.532214
 H        -0.016850         0.561234        -0.757161
 H        -0.596718         2.514677         1.795929
 H        -1.612791         2.573875         0.245146
 H        -0.737800         0.788464         3.075442
 H        -1.782322        -0.664283         2.575897
 H        -4.234785         0.859808         2.667385
 H        -3.701820         2.594765         2.564678
 H        -5.149971         1.245559         0.348368
 H        -4.216089         2.801335         0.340442
 H        -2.798561        -0.775063         0.434896
