19
Iteration:   771charge 0 multiplicity 1
 O        -0.034531        -0.130302        -0.036932
 C        -0.993265         0.516272         0.730919
 C        -1.387303         2.118795         1.006481
 C        -2.408491         1.206587         1.789785
 C        -1.237512         0.250481         2.217865
 C        -3.802826         1.653776         2.030375
 C        -4.346398         1.698040         0.468873
 O        -3.231630         1.142660        -0.395347
 C        -2.435038         0.310898         0.514017
 H         0.781762        -0.176337         0.410609
 H        -0.793240         2.586405         1.769366
 H        -1.839104         2.716188         0.154682
 H        -0.563735         0.815199         2.815697
 H        -1.478217        -0.822151         2.501626
 H        -4.335599         0.822506         2.585788
 H        -3.827738         2.672752         2.436320
 H        -5.247108         1.074470         0.580338
 H        -4.667814         2.693867         0.129164
 H        -2.914980        -0.681367         0.562174
