19
Iteration:    17
 O         0.032299        -0.131837         0.007181
 C        -0.925694         0.578586         0.820125
 C        -1.260021         2.117167         0.945998
 C        -2.367776         1.309336         1.817597
 C        -1.109126         0.099650         2.198205
 C        -3.785993         1.736283         2.021449
 C        -4.449274         1.690654         0.423126
 O        -3.412061         1.016431        -0.404317
 C        -2.565116         0.375080         0.617016
 H         0.755722         0.451823        -0.105591
 H        -0.628625         2.946076         1.393192
 H        -1.704361         2.319499        -0.091670
 H        -0.291139         0.443765         2.878862
 H        -1.530340        -0.971654         2.199603
 H        -4.341422         0.907601         2.496721
 H        -3.978429         2.732308         2.521935
 H        -5.367896         1.045526         0.345125
 H        -4.691288         2.671241        -0.035513
 H        -3.066358        -0.626756         0.769990
