19
Iteration:   290
 O        -0.027433         0.096942         0.025779
 C        -0.998824         0.563549         0.794055
 C        -1.367149         1.971305         0.968861
 C        -2.377353         1.195011         1.725590
 C        -1.350498         0.193090         2.247005
 C        -3.726639         1.677072         1.958702
 C        -4.169013         1.805211         0.533176
 O        -3.333769         0.995569        -0.360629
 C        -2.468005         0.284414         0.425508
 H        -0.200401        -0.845052        -0.211731
 H        -0.731482         2.490072         1.789565
 H        -1.827813         2.538659         0.111585
 H        -0.577228         0.765438         2.931323
 H        -1.622807        -0.862733         2.619711
 H        -4.435043         1.002331         2.516407
 H        -3.558581         2.617428         2.524087
 H        -5.193475         1.408027         0.474663
 H        -4.196972         2.839330         0.267758
 H        -2.860685        -0.747395         0.632046
