19
Iteration:  1285charge 0 multiplicity 1
 O         0.079800        -0.021693        -0.012938
 C        -1.025352         0.545443         0.707618
 C        -1.286786         1.967012         1.099020
 C        -2.448568         1.113943         1.755642
 C        -1.340887         0.095569         2.181128
 C        -3.719281         1.809966         2.037994
 C        -4.266634         1.726703         0.586836
 O        -3.390000         1.153829        -0.427020
 C        -2.524252         0.296668         0.429068
 H         0.735635         0.682723        -0.081716
 H        -0.479962         2.266113         1.787141
 H        -1.426578         2.747194         0.251453
 H        -0.678239         0.428667         3.022488
 H        -1.711993        -0.897310         2.339614
 H        -4.367104         1.282446         2.817446
 H        -3.616481         2.810460         2.478917
 H        -5.125390         1.066115         0.638145
 H        -4.670019         2.599437        -0.027673
 H        -2.835542        -0.807811         0.377229
