19
Iteration:  1512
 O         0.102528         0.161367        -0.129721
 C        -1.002035         0.440467         0.766516
 C        -1.305383         1.931357         1.003998
 C        -2.442632         1.020001         1.813379
 C        -1.257202         0.119545         2.276617
 C        -3.874232         1.533480         2.010782
 C        -4.095645         2.053750         0.483020
 O        -3.385471         1.133869        -0.329758
 C        -2.595383         0.299073         0.504018
 H         0.312235        -0.761692        -0.224533
 H        -0.675054         2.409258         1.738624
 H        -1.654301         2.581480         0.160602
 H        -0.552960         0.602437         3.003886
 H        -1.627099        -0.848265         2.635922
 H        -4.587789         0.775933         2.361945
 H        -4.039078         2.373584         2.702790
 H        -5.209118         1.870203         0.265244
 H        -3.916506         3.142886         0.306398
 H        -3.126342        -0.678397         0.234854
