19
Iteration:  2777charge 0 multiplicity 1
 O         0.115208        -0.145758         0.036411
 C        -0.992273         0.536217         0.626109
 C        -1.354249         2.091484         0.905828
 C        -2.323550         1.236337         1.720854
 C        -1.213824         0.322691         2.186120
 C        -3.797118         1.678320         2.097335
 C        -4.346458         1.622287         0.611996
 O        -3.425798         1.114079        -0.302172
 C        -2.521592         0.296792         0.497320
 H         0.480792         0.490925        -0.626362
 H        -0.608847         2.646245         1.485398
 H        -1.750574         2.730437         0.062154
 H        -0.422973         0.656453         2.825987
 H        -1.544160        -0.798097         2.240569
 H        -4.271516         0.793743         2.648515
 H        -4.048140         2.658131         2.528051
 H        -5.178068         0.958595         0.690433
 H        -4.558625         2.606779         0.150385
 H        -3.014459        -0.691560         0.640985
