19
Iteration:  3100
 O        -0.022725        -0.029852        -0.172131
 C        -0.988990         0.501885         0.722295
 C        -1.245816         1.975725         0.949767
 C        -2.321871         1.237555         1.777087
 C        -1.285265         0.296959         2.347054
 C        -3.744462         1.553954         2.024661
 C        -4.401932         1.753034         0.538914
 O        -3.342848         1.083920        -0.334429
 C        -2.505705         0.331232         0.547408
 H         0.739139         0.556668        -0.163280
 H        -0.651243         2.591542         1.665656
 H        -1.705354         2.606225         0.149574
 H        -0.366591         0.697401         2.922260
 H        -1.815572        -0.633548         2.681720
 H        -4.292825         0.656887         2.439472
 H        -3.966769         2.540355         2.591691
 H        -5.289757         1.236585         0.330986
 H        -4.431261         2.726046         0.099018
 H        -2.919237        -0.693425         0.633803
