19
Iteration:  4562
 O        -0.024607         0.054803        -0.137903
 C        -1.000863         0.562759         0.726088
 C        -1.393728         2.032780         1.032261
 C        -2.361306         1.212025         1.779612
 C        -1.278826         0.230907         2.234895
 C        -3.834747         1.766839         2.023662
 C        -4.357634         1.488247         0.494602
 O        -3.228853         1.058422        -0.322451
 C        -2.422150         0.301381         0.489214
 H         0.778245         0.166289         0.372419
 H        -0.529744         2.441708         1.569602
 H        -1.689942         2.860702         0.273951
 H        -0.641951         0.536454         3.024530
 H        -1.518720        -0.868614         2.377408
 H        -4.180745         1.277995         2.942424
 H        -4.124438         2.796511         2.374919
 H        -5.239060         0.908608         0.314966
 H        -4.494112         2.502200         0.158244
 H        -2.989107        -0.615912         0.720566
