19
Iteration:  4551charge 0 multiplicity 1
 O        -0.052386         0.074112        -0.167450
 C        -0.966291         0.577396         0.720141
 C        -1.248020         2.035799         1.071766
 C        -2.454912         1.282803         1.826050
 C        -1.245158         0.227715         2.210200
 C        -3.856981         1.736193         2.032741
 C        -4.328709         1.560846         0.433962
 O        -3.279077         1.012586        -0.321534
 C        -2.477843         0.274804         0.610594
 H         0.862843         0.129747         0.111589
 H        -0.609834         2.495100         1.817118
 H        -1.555333         2.660675         0.157729
 H        -0.463607         0.529151         2.877176
 H        -1.548177        -0.855392         2.335624
 H        -4.476313         0.963061         2.458996
 H        -4.011133         2.785011         2.363845
 H        -5.162074         0.873325         0.411762
 H        -4.631093         2.468907        -0.077308
 H        -2.646761        -0.821549         0.636001
