19
Iteration:  2061charge 0 multiplicity 1
 O         0.018143         0.001159        -0.225232
 C        -0.991700         0.606601         0.658407
 C        -1.327104         2.007422         1.053420
 C        -2.436381         1.087338         1.820538
 C        -1.263882         0.258487         2.270587
 C        -3.782273         1.673124         2.017435
 C        -4.201797         1.909133         0.553103
 O        -3.412852         0.913957        -0.347930
 C        -2.516604         0.272865         0.554087
 H         0.772445        -0.037596         0.368223
 H        -0.734504         2.696215         1.742698
 H        -1.657409         2.655685         0.133508
 H        -0.551227         0.817223         2.956815
 H        -1.493651        -0.766941         2.585722
 H        -4.566810         0.900939         2.317654
 H        -3.748276         2.541951         2.646672
 H        -5.280724         1.563620         0.551195
 H        -4.044078         2.929692         0.109310
 H        -2.626508        -0.772095         0.753316
