19
Iteration:  3045
 O         0.018436        -0.041578        -0.065881
 C        -0.988578         0.598798         0.680803
 C        -1.382296         2.101514         1.018084
 C        -2.364644         1.151558         1.739797
 C        -1.198201         0.211595         2.160450
 C        -3.711093         1.633608         2.039016
 C        -4.197933         1.775635         0.578367
 O        -3.504165         0.970521        -0.367915
 C        -2.538484         0.338097         0.511293
 H         0.799865         0.134584         0.510093
 H        -0.679413         2.694198         1.700584
 H        -1.865682         2.703473         0.215788
 H        -0.667492         0.690296         3.091749
 H        -1.376562        -0.844379         2.474646
 H        -4.346651         0.796086         2.485246
 H        -3.919033         2.616994         2.623885
 H        -5.233542         1.546930         0.437114
 H        -4.070908         2.798697         0.215469
 H        -2.777080        -0.778070         0.578764
