19
Iteration:  3986
 O         0.127310         0.017655         0.128821
 C        -0.936235         0.569051         0.730180
 C        -1.287630         2.023522         0.854254
 C        -2.394854         1.074338         1.700242
 C        -1.180302         0.200326         2.231178
 C        -3.724169         1.663073         2.047163
 C        -4.389631         1.739534         0.586779
 O        -3.431052         1.121978        -0.336106
 C        -2.633982         0.284962         0.446100
 H         0.337666         0.380801        -0.762811
 H        -0.541599         2.638239         1.459099
 H        -1.651386         2.437292        -0.056350
 H        -0.524950         0.596391         2.954673
 H        -1.334147        -0.861386         2.598311
 H        -4.383573         0.993217         2.612165
 H        -3.710620         2.672959         2.552591
 H        -5.380445         1.203598         0.465916
 H        -4.791470         2.763687         0.211455
 H        -3.071694        -0.759834         0.274706
