19
Iteration:  4046charge 0 multiplicity 1
 O         0.089558         0.061278        -0.013256
 C        -0.962957         0.446210         0.747026
 C        -1.181796         1.951061         1.098919
 C        -2.370259         1.231482         1.760332
 C        -1.252384         0.152037         2.255069
 C        -3.793173         1.784543         1.934269
 C        -4.421620         1.570672         0.589739
 O        -3.466699         1.048783        -0.352058
 C        -2.499183         0.412439         0.389512
 H         0.110481         0.541583        -0.889293
 H        -0.429707         2.361436         1.765362
 H        -1.354026         2.670805         0.226815
 H        -0.434718         0.735730         2.796970
 H        -1.681944        -0.804048         2.537633
 H        -4.333596         1.405249         2.834099
 H        -3.783276         2.857345         2.164607
 H        -5.395996         0.937081         0.511062
 H        -4.689911         2.609341         0.268860
 H        -2.674116        -0.704354         0.469454
