19
Iteration:   751
 O         0.005219        -0.171964        -0.101257
 C        -0.926705         0.598727         0.730008
 C        -1.206859         2.038137         1.074438
 C        -2.425690         1.162910         1.661681
 C        -1.364599         0.321931         2.421796
 C        -3.793857         1.703482         1.998721
 C        -4.338204         1.572838         0.595684
 O        -3.352696         1.152878        -0.391459
 C        -2.467870         0.384953         0.392732
 H         0.949752         0.005598         0.022326
 H        -0.652811         2.637617         1.830244
 H        -1.687475         2.558360         0.208472
 H        -0.898076         0.824452         3.223742
 H        -1.727791        -0.697047         2.567531
 H        -4.385736         1.032770         2.694599
 H        -3.698965         2.816513         2.212276
 H        -5.217775         0.853070         0.437613
 H        -4.675416         2.512313         0.108000
 H        -2.638009        -0.678192         0.209158
