19
Iteration:  4515
 O        -0.005208         0.043029        -0.170901
 C        -0.967309         0.615312         0.737544
 C        -1.293960         2.002067         1.087295
 C        -2.408622         1.211219         1.766149
 C        -1.294537         0.326128         2.313704
 C        -3.826118         1.651540         2.029234
 C        -4.249922         1.683071         0.450117
 O        -3.404540         0.928961        -0.376292
 C        -2.461294         0.238056         0.532184
 H         0.813244         0.566662        -0.177608
 H        -0.691562         2.590269         1.880248
 H        -1.457879         2.712792         0.287246
 H        -0.548517         0.716362         2.963313
 H        -1.609998        -0.668751         2.617635
 H        -4.308699         0.941031         2.709042
 H        -3.948579         2.601116         2.637832
 H        -5.290177         1.327627         0.496912
 H        -4.308049         2.731857         0.123414
 H        -2.556044        -0.849502         0.350126
