19
Iteration:  2005charge 0 multiplicity 1
 O         0.193044        -0.039557         0.035061
 C        -0.913394         0.562437         0.661460
 C        -1.336730         2.017228         0.991386
 C        -2.395776         1.137097         1.649024
 C        -1.269526         0.248952         2.236915
 C        -3.713458         1.656696         2.081055
 C        -4.320815         1.795611         0.587640
 O        -3.485385         1.081205        -0.356680
 C        -2.579305         0.291920         0.423931
 H        -0.258595        -0.347017        -0.777653
 H        -0.648894         2.404778         1.791891
 H        -1.659299         2.790524         0.186684
 H        -0.764635         0.664052         3.097619
 H        -1.620677        -0.764409         2.499212
 H        -4.260721         0.866030         2.696668
 H        -3.661271         2.564527         2.725564
 H        -5.404714         1.429318         0.568383
 H        -4.303332         2.895049         0.370809
 H        -2.863154        -0.731126         0.542262
