19
Iteration:  1455
 O         0.060276         0.130661        -0.059191
 C        -0.948027         0.498929         0.685414
 C        -1.199612         1.968664         1.248953
 C        -2.415633         1.077328         1.798139
 C        -1.219046        -0.002800         2.155114
 C        -3.857575         1.726395         1.926213
 C        -4.272103         1.951839         0.474370
 O        -3.393827         1.039078        -0.405686
 C        -2.536175         0.326488         0.551624
 H        -0.228755        -0.566787        -0.732315
 H        -0.627092         2.440416         2.054532
 H        -1.768413         2.709694         0.689869
 H        -0.540237         0.462029         2.966093
 H        -1.648795        -1.015517         2.441393
 H        -4.424851         0.962467         2.329894
 H        -3.882708         2.696209         2.441624
 H        -5.414803         1.727680         0.492384
 H        -4.098679         2.973413         0.107046
 H        -3.120017        -0.707641         0.701403
