19
Iteration:  4594charge 0 multiplicity 1
 O         0.104093        -0.003301        -0.009170
 C        -0.888338         0.544595         0.771751
 C        -1.279064         1.968194         1.010029
 C        -2.433030         1.136470         1.705086
 C        -1.226001         0.268199         2.246884
 C        -3.827429         1.794354         2.037227
 C        -4.428542         1.530585         0.560745
 O        -3.472863         1.154323        -0.396175
 C        -2.447948         0.333422         0.381314
 H         0.974798         0.329604         0.282976
 H        -0.572421         2.412404         1.775575
 H        -1.529744         2.673987         0.097665
 H        -0.698097         0.842108         2.932886
 H        -1.417102        -0.823693         2.446328
 H        -4.159498         0.983436         2.655697
 H        -3.788403         2.853375         2.525578
 H        -5.185833         0.727211         0.714110
 H        -5.022933         2.361304         0.173659
 H        -2.816784        -0.725948         0.453319
