19
Iteration:  3326charge 0 multiplicity 1
 O         0.061417         0.094095        -0.065011
 C        -0.986284         0.600653         0.657550
 C        -1.306837         2.015854         0.978105
 C        -2.393338         1.132687         1.852724
 C        -1.248821         0.168658         2.190519
 C        -3.796358         1.697066         2.031721
 C        -4.172260         1.901504         0.471348
 O        -3.576845         0.761619        -0.215082
 C        -2.496841         0.338166         0.511231
 H         0.630565         0.848592        -0.349141
 H        -0.627620         2.711288         1.488117
 H        -1.668392         2.517050         0.047405
 H        -0.542691         0.505009         3.041395
 H        -1.626717        -0.888728         2.419146
 H        -4.436893         0.908132         2.423697
 H        -3.849059         2.653195         2.579726
 H        -5.201418         1.892478         0.221323
 H        -3.525387         2.655306        -0.010573
 H        -2.584960        -0.802845         0.444897
