19
Iteration:  2069charge 0 multiplicity 1
 O        -0.032662         0.045538        -0.215719
 C        -1.035470         0.595404         0.629910
 C        -1.370873         2.019432         1.104266
 C        -2.429591         1.083282         1.785353
 C        -1.287272         0.305904         2.285757
 C        -3.724769         1.693590         2.015136
 C        -4.157725         1.853877         0.560112
 O        -3.410602         0.872616        -0.342482
 C        -2.452378         0.269161         0.519978
 H         0.659999        -0.343281         0.317373
 H        -0.652087         2.370474         1.868725
 H        -1.656237         2.835900         0.370162
 H        -0.650340         0.790123         2.918565
 H        -1.546438        -0.682009         2.602053
 H        -4.469796         1.045562         2.585004
 H        -3.668066         2.659764         2.614947
 H        -5.249224         1.686376         0.290307
 H        -3.978196         2.847744         0.130668
 H        -2.684398        -0.797889         0.552335
