19
Iteration:  1889charge 0 multiplicity 1
 O         0.027935        -0.117744         0.077803
 C        -1.052438         0.593249         0.681083
 C        -1.139174         2.049298         1.056870
 C        -2.372485         1.142919         1.839169
 C        -1.206996         0.123543         2.108253
 C        -3.790002         1.680304         2.032158
 C        -4.410918         1.668417         0.518275
 O        -3.355181         1.233099        -0.432318
 C        -2.572740         0.376098         0.512966
 H         0.300968         0.355592        -0.758012
 H        -0.380811         2.352798         1.745079
 H        -1.457425         2.815570         0.343388
 H        -0.456786         0.378531         2.941636
 H        -1.468577        -0.945908         2.174360
 H        -4.363337         0.948853         2.622233
 H        -3.876416         2.583719         2.619835
 H        -5.307681         1.007421         0.564659
 H        -4.715983         2.638576         0.045630
 H        -2.977503        -0.626444         0.526295
