19
Iteration:  3416charge 0 multiplicity 1
 O         0.059632         0.034157        -0.057159
 C        -0.977233         0.521522         0.711014
 C        -1.122212         2.060029         1.078168
 C        -2.345678         1.282918         1.764348
 C        -1.254187         0.198303         2.231560
 C        -3.798961         1.815906         2.038841
 C        -4.485563         1.462506         0.570808
 O        -3.413624         1.073401        -0.407012
 C        -2.479926         0.357767         0.452627
 H        -0.291218        -0.262805        -0.903379
 H        -0.325357         2.346497         1.752266
 H        -1.355648         2.859669         0.425859
 H        -0.544947         0.397356         3.107813
 H        -1.623976        -0.780553         2.508264
 H        -4.472223         1.192713         2.623397
 H        -3.868628         2.840806         2.394958
 H        -5.145186         0.606701         0.700921
 H        -4.842010         2.379673         0.198225
 H        -2.774949        -0.723602         0.582513
