19
Iteration:  4690charge 0 multiplicity 1
 O         0.040425         0.113799        -0.053612
 C        -1.002334         0.519789         0.778789
 C        -1.337897         2.052316         1.051616
 C        -2.446714         1.204783         1.819677
 C        -1.166446         0.165975         2.207731
 C        -3.884763         1.688421         1.991560
 C        -4.323736         1.643071         0.486768
 O        -3.244961         1.043071        -0.424166
 C        -2.470395         0.324633         0.614273
 H        -0.419907        -0.274986        -0.837471
 H        -0.549047         2.440308         1.687576
 H        -1.602799         2.626016         0.137237
 H        -0.388332         0.558898         2.809547
 H        -1.607754        -0.889468         2.259696
 H        -4.604804         1.145432         2.591219
 H        -3.700786         2.749849         2.328906
 H        -5.243899         1.021395         0.613681
 H        -4.662432         2.609778         0.082598
 H        -2.828573        -0.722341         0.705932
