19
Iteration:  4954
 O         0.227420         0.084845         0.077812
 C        -0.877569         0.544287         0.677878
 C        -1.273652         2.016428         1.064783
 C        -2.389818         1.091732         1.685921
 C        -1.251819         0.182860         2.180383
 C        -3.786453         1.751103         1.966266
 C        -4.394015         1.737333         0.613164
 O        -3.523842         0.999935        -0.368169
 C        -2.619092         0.259132         0.447620
 H         0.656814         0.719028        -0.534628
 H        -0.608472         2.517447         1.737173
 H        -1.437865         2.850616         0.409032
 H        -0.682427         0.471580         3.088938
 H        -1.505577        -0.911662         2.426512
 H        -4.378824         1.080785         2.564974
 H        -3.801405         2.783979         2.348009
 H        -5.355597         1.179503         0.490682
 H        -4.608548         2.708966         0.148956
 H        -2.902953        -0.799062         0.470687
