19
Iteration:  4178
 O         0.233226         0.055812         0.004143
 C        -0.968248         0.477545         0.676537
 C        -1.512008         1.990674         1.017561
 C        -2.457496         1.004102         1.748879
 C        -1.129747         0.291090         2.235162
 C        -3.863000         1.727882         2.053059
 C        -4.237629         1.987919         0.494622
 O        -3.416092         0.959120        -0.318227
 C        -2.635240         0.164612         0.473529
 H         0.555154         0.530334        -0.818517
 H        -0.682555         2.358683         1.667129
 H        -1.863039         2.694656         0.309516
 H        -0.374379         0.735376         2.898799
 H        -1.176313        -0.778041         2.668604
 H        -4.522617         0.923411         2.350513
 H        -3.765322         2.714298         2.591676
 H        -5.318006         1.772149         0.414297
 H        -3.827327         2.956975         0.222872
 H        -2.939271        -0.924206         0.467393
