19
Iteration:   765charge 0 multiplicity 1
 O        -0.037612        -0.166410        -0.072213
 C        -0.911024         0.559981         0.732128
 C        -1.401713         2.115645         1.017917
 C        -2.418978         1.152475         1.767946
 C        -1.305105         0.291533         2.285386
 C        -3.798738         1.687996         2.027183
 C        -4.362158         1.682867         0.500443
 O        -3.252677         1.149290        -0.408513
 C        -2.415301         0.300634         0.442705
 H         0.860012        -0.139038         0.388194
 H        -0.693957         2.597001         1.768539
 H        -1.628825         2.726635         0.188678
 H        -0.538512         0.766950         2.983098
 H        -1.548734        -0.705888         2.554858
 H        -4.356242         0.971212         2.607770
 H        -3.809777         2.625736         2.627103
 H        -5.181725         0.920571         0.609860
 H        -4.730705         2.679683         0.206279
 H        -2.848313        -0.705772         0.596975
