19
Iteration:  1685
 O         0.233409         0.061144         0.052660
 C        -0.968252         0.497076         0.684365
 C        -1.147665         1.917056         1.077703
 C        -2.418809         1.151536         1.721309
 C        -1.473860         0.061201         2.137802
 C        -3.825858         1.702672         2.026837
 C        -4.427499         1.833325         0.652998
 O        -3.370706         1.197212        -0.356906
 C        -2.451754         0.337974         0.406466
 H        -0.102067        -0.304486        -0.823555
 H        -0.366280         2.435151         1.635994
 H        -1.574796         2.520930         0.222785
 H        -0.629258         0.158161         2.874415
 H        -1.898645        -0.941618         2.218138
 H        -4.511806         1.063646         2.547171
 H        -3.800247         2.737750         2.477095
 H        -5.237903         1.114118         0.654275
 H        -4.741687         2.749250         0.258645
 H        -2.842843        -0.709391         0.454254
