19
Iteration:  3464charge 0 multiplicity 1
 O         0.075079         0.003670        -0.046965
 C        -1.036244         0.641443         0.641087
 C        -1.250514         2.015420         1.092590
 C        -2.395050         1.176967         1.776353
 C        -1.360666         0.133441         2.246511
 C        -3.729635         1.942915         1.953340
 C        -4.391587         1.383395         0.693732
 O        -3.335332         1.115625        -0.394450
 C        -2.468696         0.360025         0.442640
 H        -0.142787         0.073497        -1.006140
 H        -0.580332         2.540097         1.801643
 H        -1.663929         2.699878         0.279067
 H        -0.578116         0.384916         2.890617
 H        -1.549492        -0.946280         2.408259
 H        -4.241936         1.662362         2.913041
 H        -3.546719         3.040510         1.875027
 H        -4.579266         0.416006         1.150938
 H        -5.098103         2.031738         0.118208
 H        -2.741987        -0.692232         0.612248
