19
Iteration:  4055charge 0 multiplicity 1
 O         0.132304         0.013228        -0.062946
 C        -1.036547         0.544313         0.680787
 C        -1.215196         1.974830         1.106661
 C        -2.374629         1.203406         1.746553
 C        -1.277446         0.189791         2.266503
 C        -3.813302         1.802188         2.016090
 C        -4.382618         1.563244         0.547919
 O        -3.371860         1.112739        -0.368571
 C        -2.534509         0.303163         0.474007
 H         0.014082         0.586832        -0.872647
 H        -0.434923         2.359528         1.712685
 H        -1.402738         2.586194         0.181274
 H        -0.438608         0.550955         2.938081
 H        -1.664066        -0.689279         2.685063
 H        -4.332703         1.213859         2.807919
 H        -3.747022         2.825821         2.291512
 H        -5.264187         0.859040         0.612089
 H        -4.824185         2.426109         0.016950
 H        -2.934718        -0.748515         0.605029
