19
Iteration:   930charge 0 multiplicity 1
 O         0.096794        -0.129419         0.057905
 C        -0.997327         0.528092         0.691487
 C        -1.263789         2.042093         1.067426
 C        -2.407243         1.217974         1.848515
 C        -1.226566         0.192892         2.171135
 C        -3.854501         1.659679         2.004812
 C        -4.384547         1.694735         0.445847
 O        -3.353697         1.163279        -0.395026
 C        -2.449382         0.431807         0.550758
 H        -0.254808        -0.279917        -0.796959
 H        -0.533826         2.525315         1.679115
 H        -1.752456         2.657180         0.240953
 H        -0.361191         0.605609         2.691622
 H        -1.467322        -0.819605         2.361118
 H        -4.364283         0.875664         2.558625
 H        -3.916178         2.610568         2.537102
 H        -5.201729         0.936986         0.401798
 H        -4.698329         2.679558         0.066717
 H        -2.810013        -0.579188         0.437063
