19
Iteration:  1020
 O         0.046856         0.103941        -0.135314
 C        -1.030700         0.524374         0.747513
 C        -1.223921         1.973000         1.151033
 C        -2.411844         1.230404         1.812256
 C        -1.222111        -0.017240         2.237104
 C        -3.871242         1.877516         1.902247
 C        -4.331527         1.634898         0.504406
 O        -3.293813         1.111918        -0.373460
 C        -2.576164         0.350651         0.521706
 H         0.388098        -0.789747        -0.022532
 H        -0.537233         2.276495         1.996895
 H        -1.558989         2.747396         0.432154
 H        -0.439632         0.296760         2.916566
 H        -1.472567        -1.118592         2.286309
 H        -4.480241         1.466020         2.708053
 H        -3.815654         2.923749         2.055359
 H        -5.090530         0.832395         0.552923
 H        -4.616651         2.640599         0.064651
 H        -2.891866        -0.644055         0.764124
