19
Iteration:  4985
 O         0.115662         0.109981         0.050652
 C        -0.960175         0.501751         0.675106
 C        -1.428122         2.073286         0.968245
 C        -2.422750         1.182465         1.777823
 C        -1.230314         0.164870         2.182226
 C        -3.832827         1.658751         2.063414
 C        -4.239571         1.731612         0.573911
 O        -3.321358         1.036337        -0.365296
 C        -2.521397         0.257334         0.488715
 H        -0.008923         0.221613        -0.901974
 H        -0.682856         2.559001         1.586449
 H        -1.918815         2.497712         0.044471
 H        -0.592200         0.432159         3.026018
 H        -1.612261        -0.909138         2.455705
 H        -4.435352         0.978769         2.658057
 H        -4.038268         2.665373         2.521145
 H        -5.163756         1.318129         0.192730
 H        -4.247393         2.828327         0.258269
 H        -2.855886        -0.814977         0.581711
