19
Iteration:  4463
 O         0.201351         0.068891         0.021052
 C        -0.967777         0.484684         0.673620
 C        -1.355777         2.004406         0.939540
 C        -2.422361         1.107792         1.691960
 C        -1.215425         0.303336         2.263669
 C        -3.875343         1.622314         2.022039
 C        -4.258749         1.926860         0.559720
 O        -3.506471         0.889920        -0.334571
 C        -2.537777         0.242720         0.467575
 H         0.737148         0.867698         0.030742
 H        -0.655188         2.520327         1.601770
 H        -1.837381         2.517832         0.065386
 H        -0.603354         1.004119         2.780269
 H        -1.122936        -0.779530         2.643717
 H        -4.562289         0.824063         2.363163
 H        -3.841892         2.451348         2.808019
 H        -5.315698         1.760790         0.558727
 H        -3.942743         2.912768         0.204047
 H        -2.856406        -0.780338         0.675334
