19
Iteration:   481charge 0 multiplicity 1
 O         0.145038        -0.045230         0.119101
 C        -1.072113         0.465582         0.619487
 C        -1.324821         2.038741         0.974814
 C        -2.422660         1.226187         1.762730
 C        -1.214097         0.206324         2.175890
 C        -3.862496         1.560408         1.966655
 C        -4.303780         1.764076         0.470476
 O        -3.287990         1.208332        -0.308152
 C        -2.602585         0.304225         0.598197
 H        -0.007001        -0.227353        -0.861184
 H        -0.530872         2.471656         1.541607
 H        -1.636174         2.659109         0.065098
 H        -0.266913         0.565978         2.650561
 H        -1.277799        -0.825934         2.757990
 H        -4.260004         0.766020         2.539008
 H        -3.894836         2.519450         2.459954
 H        -5.203408         1.365259         0.122059
 H        -4.325635         2.893404         0.257469
 H        -3.154309        -0.623104         0.817211
