19
Iteration:   884charge 0 multiplicity 1
 O         0.091264         0.043117        -0.087933
 C        -1.010187         0.514955         0.744456
 C        -1.292842         1.965721         0.989787
 C        -2.403717         1.149585         1.830512
 C        -1.247677         0.154601         2.359023
 C        -3.846090         1.702474         2.014724
 C        -4.272820         1.899289         0.462327
 O        -3.358789         0.974682        -0.369258
 C        -2.573629         0.266817         0.479067
 H         0.580687         0.751938        -0.507765
 H        -0.540952         2.560699         1.546699
 H        -1.662997         2.445366         0.119222
 H        -0.548726         0.622103         3.048723
 H        -1.609616        -0.779961         2.609213
 H        -4.430804         0.860033         2.420814
 H        -4.022633         2.659677         2.607732
 H        -5.302512         1.569043         0.215255
 H        -4.018304         2.840202         0.023584
 H        -2.877747        -0.705583         0.808949
