19
Iteration:  4384
 O         0.038055         0.055000        -0.090177
 C        -0.970816         0.529842         0.733063
 C        -1.363624         1.961579         1.043300
 C        -2.408766         1.154375         1.801902
 C        -1.290710         0.271327         2.270945
 C        -3.813602         1.752559         1.996759
 C        -4.368071         1.650530         0.569496
 O        -3.213127         1.048763        -0.408273
 C        -2.482772         0.273086         0.540292
 H        -0.067769         0.288543        -1.020241
 H        -0.575104         2.555372         1.643891
 H        -1.695381         2.494918         0.203999
 H        -0.603262         0.768249         2.998935
 H        -1.395134        -0.732321         2.654562
 H        -4.413265         1.032682         2.570409
 H        -3.774425         2.798961         2.354749
 H        -5.270134         1.087419         0.506832
 H        -4.654542         2.639429         0.132719
 H        -2.839677        -0.757578         0.597532
