19
Iteration:  1799charge 0 multiplicity 1
 O         0.041004         0.043566        -0.283845
 C        -0.988404         0.516488         0.711695
 C        -1.328907         2.020140         1.223058
 C        -2.485530         1.039779         1.805946
 C        -1.245660         0.075402         2.205030
 C        -3.905264         1.706577         2.036397
 C        -4.169137         1.976715         0.484947
 O        -3.309550         0.981531        -0.352562
 C        -2.547438         0.344110         0.527327
 H         0.830420        -0.037582         0.340726
 H        -0.748245         2.618608         1.938723
 H        -1.696814         2.681691         0.415009
 H        -0.525619         0.506380         2.980813
 H        -1.451366        -1.033972         2.557588
 H        -4.684106         1.019428         2.410855
 H        -3.943694         2.575558         2.647581
 H        -5.223617         1.774947         0.271456
 H        -3.844693         2.988681         0.094909
 H        -2.851074        -0.693126         0.715122
