19
Iteration:  1802charge 0 multiplicity 1
 O         0.056216         0.044612        -0.265042
 C        -0.965595         0.515330         0.697876
 C        -1.343437         2.013765         1.219660
 C        -2.468748         1.068303         1.803978
 C        -1.216074         0.044736         2.203390
 C        -3.940858         1.733200         2.051645
 C        -4.191327         2.000231         0.490566
 O        -3.303980         0.979943        -0.349108
 C        -2.559981         0.319058         0.508664
 H         0.792193        -0.111524         0.358669
 H        -0.799553         2.582735         1.929426
 H        -1.756919         2.703908         0.439490
 H        -0.478760         0.421051         2.960473
 H        -1.447028        -0.953628         2.453453
 H        -4.688471         0.970140         2.395920
 H        -3.873844         2.606589         2.723314
 H        -5.253625         1.703626         0.228229
 H        -3.906680         2.972335        -0.003430
 H        -2.869165        -0.669663         0.755817
