19
Iteration:    42
 O         0.122843        -0.141217         0.054365
 C        -1.000202         0.538388         0.667818
 C        -1.191201         2.051102         1.024602
 C        -2.378924         1.237949         1.739197
 C        -1.311673         0.303322         2.198122
 C        -3.824051         1.765759         1.968767
 C        -4.423370         1.552133         0.578242
 O        -3.365302         1.104069        -0.307212
 C        -2.519279         0.334279         0.477658
 H         0.366568         0.389015        -0.720768
 H        -0.432011         2.464731         1.675646
 H        -1.398246         2.641881         0.155319
 H        -0.491913         0.734174         2.774241
 H        -1.668732        -0.661196         2.404617
 H        -4.367134         1.071774         2.685444
 H        -3.860724         2.789661         2.272510
 H        -5.278151         0.867777         0.481970
 H        -4.729861         2.548250         0.086965
 H        -2.950566        -0.693372         0.519829
