19
Iteration:  2107charge 0 multiplicity 1
 O         0.093067         0.225084        -0.131789
 C        -0.976110         0.519374         0.634171
 C        -1.317257         1.891259         1.014462
 C        -2.382832         1.149844         1.841454
 C        -1.245941         0.159768         2.258761
 C        -3.840129         1.761785         1.932320
 C        -4.231564         1.890369         0.455834
 O        -3.433786         0.847896        -0.249749
 C        -2.527732         0.320481         0.647444
 H        -0.165673        -0.536470        -0.691017
 H        -0.360239         2.331015         1.483895
 H        -1.726221         2.664527         0.352324
 H        -0.398968         0.553614         3.019681
 H        -1.524853        -0.932313         2.413481
 H        -4.452904         0.973468         2.343557
 H        -3.930613         2.628750         2.535551
 H        -5.246760         1.582567         0.454513
 H        -4.147749         2.922577        -0.009423
 H        -2.812012        -0.710047         0.926369
