19
Iteration:  2623
 O         0.111356        -0.068413        -0.040242
 C        -0.965644         0.532438         0.623714
 C        -1.234706         1.987713         0.931258
 C        -2.365806         1.203817         1.760520
 C        -1.223912         0.342956         2.205121
 C        -3.791686         1.683664         2.060280
 C        -4.384210         1.721034         0.603468
 O        -3.474426         1.084758        -0.317462
 C        -2.577892         0.243185         0.498482
 H         0.864175         0.532981        -0.026517
 H        -0.628315         2.650521         1.577361
 H        -1.614996         2.519393         0.077911
 H        -0.395875         0.766950         2.806163
 H        -1.432875        -0.702834         2.537329
 H        -4.214389         0.780424         2.618532
 H        -3.923415         2.523443         2.788697
 H        -5.269589         1.153904         0.485766
 H        -4.706292         2.669699         0.092724
 H        -2.824017        -0.779112         0.703350
