19
Iteration:   357
 O         0.067767         0.011747         0.071114
 C        -1.009969         0.544597         0.711470
 C        -1.272323         2.037346         1.019598
 C        -2.387967         1.162259         1.690999
 C        -1.417935         0.229183         2.235882
 C        -3.658306         1.698467         2.075069
 C        -4.337263         1.641483         0.528032
 O        -3.327798         1.117812        -0.425910
 C        -2.495655         0.382181         0.424937
 H        -0.358114        -0.814749        -0.292845
 H        -0.433887         2.379649         1.748239
 H        -1.584472         2.650143         0.170119
 H        -0.623378         0.518711         3.022568
 H        -1.756691        -0.867826         2.405217
 H        -4.202148         1.107694         2.870061
 H        -3.689690         2.750131         2.372743
 H        -5.156741         0.906673         0.527836
 H        -4.716202         2.574482         0.103717
 H        -2.836113        -0.656767         0.650065
