19
Iteration:  1127charge 0 multiplicity 1
 O         0.211694         0.153566        -0.045938
 C        -0.985031         0.576535         0.748788
 C        -1.335947         1.950100         1.076835
 C        -2.469558         1.073724         1.735515
 C        -1.384282         0.105314         2.203848
 C        -3.736017         1.748928         2.009312
 C        -4.103595         1.891538         0.513788
 O        -3.542547         0.945412        -0.335451
 C        -2.525273         0.294608         0.453258
 H         0.016469        -0.706163        -0.500759
 H        -0.724176         2.476497         1.843320
 H        -1.540766         2.596233         0.199647
 H        -0.890398         0.655039         2.962236
 H        -1.687969        -0.885776         2.518170
 H        -4.486108         0.987166         2.458859
 H        -3.593320         2.610876         2.720757
 H        -5.193731         1.845256         0.397603
 H        -3.751851         2.902212         0.189552
 H        -2.854630        -0.795119         0.550812
