19
Iteration:  4162charge 0 multiplicity 1
 O         0.224186         0.108213         0.115574
 C        -0.985422         0.519414         0.683157
 C        -1.411264         1.964228         0.967506
 C        -2.416479         1.077029         1.708564
 C        -1.234750         0.197275         2.175205
 C        -3.757501         1.652138         1.985967
 C        -4.199861         1.873315         0.556717
 O        -3.504241         1.019918        -0.321246
 C        -2.587849         0.199067         0.514518
 H         0.065465         0.370697        -0.839271
 H        -0.923644         2.652442         1.646475
 H        -1.793816         2.553527         0.054464
 H        -0.547363         0.823015         2.757735
 H        -1.464945        -0.825649         2.348080
 H        -4.400048         1.147473         2.717807
 H        -3.623307         2.591938         2.506211
 H        -5.265487         1.691609         0.324864
 H        -3.963485         2.916532         0.236446
 H        -2.959587        -0.812049         0.582120
