19
Iteration:  1807charge 0 multiplicity 1
 O         0.065394         0.057164        -0.206935
 C        -0.939222         0.518331         0.678004
 C        -1.386686         1.990891         1.191775
 C        -2.424386         1.126642         1.813264
 C        -1.167101         0.022791         2.193238
 C        -3.970594         1.764511         2.055666
 C        -4.236307         2.020268         0.490685
 O        -3.326460         1.007584        -0.354792
 C        -2.545457         0.259101         0.507359
 H         0.821440        -0.284227         0.349928
 H        -0.732492         2.513487         1.989316
 H        -1.784424         2.694285         0.487167
 H        -0.415367         0.306349         2.902834
 H        -1.537210        -1.080391         2.235945
 H        -4.620447         0.971898         2.382922
 H        -3.807150         2.613467         2.754689
 H        -5.184953         1.653579         0.174747
 H        -4.065805         2.933549        -0.034031
 H        -2.938138        -0.828695         0.711333
