19
Iteration:   393charge 0 multiplicity 1
 O         0.091476         0.153696        -0.064371
 C        -0.994148         0.463921         0.764387
 C        -1.249147         1.855240         1.117460
 C        -2.406949         1.125805         1.778562
 C        -1.192650         0.099372         2.288659
 C        -3.790245         1.895251         1.886077
 C        -4.482855         1.649253         0.443130
 O        -3.303661         1.167902        -0.344835
 C        -2.601711         0.306149         0.508911
 H         0.373021        -0.786728        -0.183908
 H        -0.444582         2.297735         1.702397
 H        -1.462026         2.568132         0.297009
 H        -0.402098         0.451923         2.941007
 H        -1.577682        -0.933934         2.504289
 H        -4.289747         1.597945         2.777894
 H        -3.470752         2.912322         2.000797
 H        -5.304654         0.973218         0.485942
 H        -4.784171         2.659970         0.030367
 H        -3.106364        -0.659638         0.679712
