19
Iteration:  4083charge 0 multiplicity 1
 O        -0.022010        -0.080745        -0.040472
 C        -1.026174         0.581373         0.737092
 C        -1.415548         2.058402         0.988264
 C        -2.376116         1.185697         1.790203
 C        -1.233462         0.189174         2.208932
 C        -3.806063         1.689629         2.004919
 C        -4.289511         1.557611         0.539493
 O        -3.215942         1.186510        -0.318976
 C        -2.465794         0.363166         0.524056
 H        -0.089038         0.466665        -0.852033
 H        -0.668658         2.698698         1.532934
 H        -1.794333         2.487466         0.099619
 H        -0.527610         0.465572         2.956028
 H        -1.596091        -0.836289         2.531388
 H        -4.346008         1.058024         2.698189
 H        -3.737932         2.775506         2.277606
 H        -5.079325         0.768084         0.476434
 H        -4.588639         2.520383         0.089475
 H        -2.884065        -0.638613         0.567236
