19
Iteration:  2642charge 0 multiplicity 1
 O         0.004614        -0.001230        -0.071991
 C        -1.003748         0.482287         0.741239
 C        -1.374334         2.062958         0.866582
 C        -2.339271         1.253181         1.707449
 C        -1.242600         0.261087         2.265676
 C        -3.739176         1.544110         2.052052
 C        -4.294623         1.759328         0.628928
 O        -3.421567         0.991012        -0.377688
 C        -2.512138         0.341224         0.507462
 H         0.669119         0.676773         0.028790
 H        -0.560734         2.499052         1.319094
 H        -1.716755         2.607866         0.008887
 H        -0.479734         0.641988         3.081639
 H        -1.497042        -0.716277         2.686021
 H        -4.105127         0.843124         2.766727
 H        -3.768961         2.574725         2.502242
 H        -5.334984         1.399068         0.476391
 H        -4.041642         2.772819         0.282599
 H        -2.906855        -0.635440         0.937634
