19
Iteration:  1740charge 0 multiplicity 1
 O         0.118271        -0.003326        -0.052070
 C        -1.008991         0.493261         0.667627
 C        -1.300904         1.930698         1.077467
 C        -2.431612         1.106504         1.777852
 C        -1.207066         0.105040         2.234763
 C        -3.929576         1.625133         2.032473
 C        -4.215738         1.931917         0.476269
 O        -3.379446         1.139808        -0.272824
 C        -2.530989         0.322040         0.467752
 H         0.361661         0.663611        -0.731325
 H        -0.565813         2.365963         1.807034
 H        -1.657531         2.611929         0.276695
 H        -0.479810         0.363047         3.006835
 H        -1.652720        -0.908831         2.247164
 H        -4.537351         0.823405         2.429360
 H        -4.146431         2.641103         2.506520
 H        -5.243668         1.853052         0.089940
 H        -3.922042         2.953337         0.400881
 H        -2.953871        -0.772445         0.495428
