19
Iteration:  2435
 O        -0.021451        -0.002346        -0.147423
 C        -0.949418         0.607870         0.692820
 C        -1.436956         2.080030         0.999144
 C        -2.380370         1.154308         1.766562
 C        -1.196013         0.255319         2.242940
 C        -3.784792         1.680955         2.072502
 C        -4.067876         1.828560         0.561356
 O        -3.536707         0.823419        -0.340909
 C        -2.516155         0.286544         0.523999
 H         0.808934         0.454814         0.154893
 H        -0.865068         2.782155         1.601037
 H        -1.664104         2.530705         0.007454
 H        -0.441665         0.553400         2.959806
 H        -1.475539        -0.737241         2.413079
 H        -4.334618         0.885260         2.589096
 H        -3.955636         2.638766         2.659196
 H        -5.152562         1.892720         0.402629
 H        -3.773894         2.884137         0.367276
 H        -2.724255        -0.800089         0.477420
