19
Iteration:  2975charge 0 multiplicity 1
 O         0.007757         0.132332        -0.132847
 C        -0.990134         0.607168         0.618317
 C        -1.376028         2.005837         1.006379
 C        -2.439432         1.082327         1.812094
 C        -1.227193         0.204558         2.202741
 C        -3.797610         1.745790         2.065584
 C        -4.141182         1.827389         0.525514
 O        -3.387840         0.883123        -0.274603
 C        -2.512048         0.274066         0.543120
 H         0.257454        -0.799992        -0.015450
 H        -0.737437         2.547955         1.704944
 H        -1.829015         2.629803         0.231712
 H        -0.606172         0.684895         2.990640
 H        -1.324861        -0.862584         2.445844
 H        -4.502060         1.121441         2.655703
 H        -3.861724         2.736852         2.505134
 H        -5.226163         1.687870         0.291386
 H        -4.019299         2.805960         0.028614
 H        -2.743966        -0.807927         0.529203
