19
Iteration:  3337charge 0 multiplicity 1
 O         0.112809         0.082161        -0.062167
 C        -1.006237         0.582393         0.716894
 C        -1.324126         2.055927         0.944299
 C        -2.358654         1.249944         1.734147
 C        -1.278209         0.223255         2.210666
 C        -3.778628         1.589879         2.002766
 C        -4.144909         1.946146         0.506959
 O        -3.569412         0.815596        -0.254163
 C        -2.551299         0.179557         0.581196
 H         0.627742         0.726743        -0.554642
 H        -0.596244         2.532226         1.611510
 H        -1.553890         2.558122        -0.016677
 H        -0.395812         0.457020         2.928502
 H        -1.748621        -0.802007         2.336450
 H        -4.368225         0.735974         2.326475
 H        -3.967648         2.395339         2.740082
 H        -5.186013         1.956710         0.305722
 H        -3.952282         3.039108         0.404798
 H        -2.732917        -0.939563         0.754582
