19
Iteration:  3072
 O         0.004999        -0.136369        -0.070185
 C        -0.999287         0.563101         0.684459
 C        -1.288380         2.063106         0.868745
 C        -2.391062         1.170744         1.745414
 C        -1.137659         0.328562         2.230166
 C        -3.896479         1.519185         2.079511
 C        -4.344538         1.804585         0.657439
 O        -3.333030         1.101529        -0.340637
 C        -2.514328         0.319237         0.512213
 H         0.828076         0.355868         0.119509
 H        -0.781869         2.612971         1.640448
 H        -1.678917         2.710801         0.100611
 H        -0.434294         0.751129         2.913465
 H        -1.455444        -0.658519         2.647600
 H        -4.409656         0.624835         2.370173
 H        -4.167468         2.378063         2.622859
 H        -5.348274         1.437411         0.224774
 H        -4.145420         2.834766         0.304046
 H        -2.776351        -0.759507         0.427756
