19
Iteration:   396charge 0 multiplicity 1
 O         0.083136         0.167377        -0.056857
 C        -1.006503         0.423899         0.749932
 C        -1.200667         1.876376         1.134869
 C        -2.417591         1.135419         1.786587
 C        -1.188925         0.083003         2.268450
 C        -3.784317         1.882202         1.871699
 C        -4.474022         1.651108         0.447885
 O        -3.323984         1.151073        -0.335385
 C        -2.603814         0.328581         0.520578
 H         0.390767        -0.763442        -0.181360
 H        -0.430737         2.374205         1.644688
 H        -1.426966         2.597247         0.336478
 H        -0.492975         0.518436         2.948784
 H        -1.516641        -0.871188         2.511854
 H        -4.375281         1.627433         2.750133
 H        -3.421351         2.924248         2.065182
 H        -5.342094         0.909558         0.385552
 H        -4.728465         2.597412        -0.055355
 H        -3.169200        -0.611374         0.645885
