19
Iteration:  4934charge 0 multiplicity 1
 O         0.268472         0.053087         0.052811
 C        -0.960066         0.535873         0.679574
 C        -1.185553         1.967963         1.108139
 C        -2.440701         1.214605         1.670931
 C        -1.364509         0.210961         2.155904
 C        -3.747314         1.716655         2.065520
 C        -4.471753         1.665809         0.566826
 O        -3.553564         0.965975        -0.367533
 C        -2.476822         0.362968         0.378654
 H         0.627396         0.897045        -0.332042
 H        -0.501197         2.501397         1.889375
 H        -1.349978         2.555374         0.231972
 H        -0.525335         0.322648         2.897558
 H        -1.655501        -0.752966         2.608619
 H        -4.255484         1.163748         2.865266
 H        -3.623998         2.727443         2.415943
 H        -5.486483         1.177370         0.374374
 H        -4.624414         2.617365         0.122266
 H        -2.762672        -0.660864         0.588468
