19
Iteration:  3856charge 0 multiplicity 1
 O         0.118519         0.130443        -0.064757
 C        -0.962964         0.583812         0.679779
 C        -1.321529         1.955000         0.870411
 C        -2.411253         1.108819         1.827664
 C        -1.183356         0.189221         2.232896
 C        -3.832265         1.632054         2.008420
 C        -4.260584         1.876212         0.564186
 O        -3.489954         0.978861        -0.324494
 C        -2.518759         0.292457         0.538689
 H         0.618256        -0.577528         0.328321
 H        -0.699511         2.609357         1.537941
 H        -1.841459         2.540448         0.145438
 H        -0.644988         0.718116         2.955390
 H        -1.503171        -0.879222         2.444746
 H        -4.405871         0.915712         2.581647
 H        -3.934923         2.626489         2.517935
 H        -5.301564         1.478624         0.509962
 H        -4.022259         2.864654         0.243607
 H        -2.910618        -0.736546         0.429992
