19
Iteration:   479
 O         0.127559        -0.037051         0.114930
 C        -1.055481         0.455633         0.616270
 C        -1.314988         2.047830         0.971262
 C        -2.437181         1.233105         1.777121
 C        -1.208986         0.195279         2.182571
 C        -3.861520         1.557448         1.976713
 C        -4.334348         1.780933         0.467027
 O        -3.276789         1.214200        -0.318442
 C        -2.589785         0.286557         0.592180
 H         0.099380        -0.317128        -0.796526
 H        -0.488868         2.447644         1.559784
 H        -1.654661         2.640053         0.063546
 H        -0.278516         0.631906         2.599514
 H        -1.241212        -0.843443         2.772579
 H        -4.208423         0.781800         2.651632
 H        -3.900481         2.508222         2.475096
 H        -5.221223         1.330765         0.050147
 H        -4.363234         2.891469         0.225091
 H        -3.203208        -0.625413         0.800973
