19
Iteration:  4554charge 0 multiplicity 1
 O        -0.051993         0.073205        -0.159401
 C        -0.965898         0.569241         0.718472
 C        -1.283669         2.033428         1.057508
 C        -2.450843         1.282834         1.818441
 C        -1.263872         0.226679         2.199088
 C        -3.842658         1.763352         2.041105
 C        -4.331358         1.535245         0.443888
 O        -3.272994         1.028121        -0.316422
 C        -2.448341         0.270015         0.590709
 H         0.860362         0.128470         0.165608
 H        -0.595585         2.418556         1.763328
 H        -1.566681         2.659514         0.233023
 H        -0.436132         0.522580         2.970086
 H        -1.490136        -0.827919         2.297850
 H        -4.451285         1.005155         2.597119
 H        -4.109386         2.726957         2.368146
 H        -5.185312         0.844453         0.335569
 H        -4.535706         2.486027        -0.054812
 H        -2.730418        -0.792049         0.639602
