19
Iteration:  4723
 O         0.112539         0.120376        -0.111055
 C        -0.936003         0.541084         0.729623
 C        -1.325879         2.052814         1.112052
 C        -2.399075         1.238434         1.707660
 C        -1.347272         0.277377         2.295161
 C        -3.817987         1.593670         1.964686
 C        -4.309472         1.837853         0.546685
 O        -3.419656         0.916069        -0.364122
 C        -2.418929         0.258300         0.502162
 H        -0.082735        -0.785172        -0.474023
 H        -0.594658         2.430022         1.803522
 H        -1.413381         2.809195         0.296900
 H        -0.529550         0.500159         2.896606
 H        -1.682645        -0.690183         2.803772
 H        -4.400267         0.732508         2.270662
 H        -4.032304         2.426350         2.705416
 H        -5.311393         1.342386         0.505100
 H        -4.288974         2.852840         0.117540
 H        -2.569612        -0.831378         0.513013
