19
Iteration:  3086
 O         0.052203        -0.115258        -0.174709
 C        -0.924383         0.478225         0.699715
 C        -1.310448         2.037289         0.957195
 C        -2.424925         1.236325         1.782173
 C        -1.260944         0.339137         2.293515
 C        -3.888577         1.514054         2.066087
 C        -4.264095         1.732586         0.528123
 O        -3.372012         1.153631        -0.338607
 C        -2.528855         0.334837         0.540598
 H         0.894564         0.392732        -0.148215
 H        -0.432404         2.551196         1.297052
 H        -1.599536         2.423445         0.003422
 H        -0.635764         0.957178         2.956782
 H        -1.326785        -0.622712         2.622624
 H        -4.266747         0.654045         2.602608
 H        -4.105846         2.286872         2.774057
 H        -5.270159         1.374608         0.488036
 H        -4.409313         2.817564         0.480882
 H        -2.984754        -0.564530         0.854908
