19
Iteration:   559charge 0 multiplicity 1
 O         0.077978         0.185505        -0.064131
 C        -0.984500         0.463688         0.745150
 C        -1.299475         1.974367         0.995480
 C        -2.408078         1.139173         1.887127
 C        -1.177289         0.023276         2.182835
 C        -3.889204         1.763887         1.932554
 C        -4.171062         1.931129         0.380337
 O        -3.467261         0.882046        -0.299095
 C        -2.632023         0.288839         0.587108
 H         0.749440         0.330516         0.575807
 H        -0.562200         2.611304         1.508093
 H        -1.582018         2.563632         0.134152
 H        -0.300258         0.263801         2.913021
 H        -1.563866        -0.992650         2.491524
 H        -4.615220         1.197553         2.458011
 H        -3.771356         2.791677         2.228380
 H        -5.216676         1.879777         0.161061
 H        -3.739066         2.952161         0.084742
 H        -2.916474        -0.740760         0.863559
