19
Iteration:  1363
 O        -0.037262        -0.076890        -0.115096
 C        -0.940955         0.540938         0.728432
 C        -1.159260         2.032427         1.113911
 C        -2.382050         1.176329         1.778766
 C        -1.324858         0.155863         2.217787
 C        -3.822660         1.702083         2.052377
 C        -4.361083         1.665789         0.487860
 O        -3.356569         1.225020        -0.362886
 C        -2.471636         0.383891         0.461720
 H         0.721680        -0.351123         0.383856
 H        -0.559075         2.473229         1.908625
 H        -1.502995         2.771250         0.338424
 H        -0.577882         0.389959         2.957533
 H        -1.690052        -0.893862         2.232942
 H        -4.354393         0.833004         2.369413
 H        -4.065360         2.599586         2.589387
 H        -5.154204         0.967201         0.408361
 H        -4.655370         2.617778         0.008026
 H        -2.789096        -0.698516         0.491114
