19
Iteration:   223
 O         0.091728         0.158641        -0.037813
 C        -1.026248         0.580778         0.697956
 C        -1.230698         2.068403         1.015015
 C        -2.346890         1.175758         1.761847
 C        -1.423433         0.152152         2.306433
 C        -3.779831         1.683313         1.981789
 C        -4.068210         1.875464         0.546602
 O        -3.533128         0.816904        -0.400016
 C        -2.531873         0.268621         0.505911
 H        -0.075724        -0.788393        -0.016787
 H        -0.504780         2.625300         1.699516
 H        -1.574779         2.671692         0.096037
 H        -0.692045         0.545490         3.067965
 H        -1.944875        -0.860619         2.369226
 H        -4.319364         0.847382         2.427699
 H        -3.826553         2.702708         2.487715
 H        -5.157462         1.981121         0.356598
 H        -3.601926         2.743534         0.140055
 H        -2.833332        -0.773854         0.723796
