19
Iteration:  2664charge 0 multiplicity 1
 O        -0.032971         0.006635        -0.176820
 C        -0.968737         0.612255         0.678134
 C        -1.337457         2.041374         0.919566
 C        -2.427118         1.153059         1.823448
 C        -1.244874         0.300509         2.225998
 C        -3.803385         1.657188         2.062480
 C        -4.186605         1.838879         0.514839
 O        -3.402156         0.882340        -0.244553
 C        -2.509218         0.247868         0.584760
 H         0.828235         0.500010        -0.119078
 H        -0.654255         2.564459         1.523573
 H        -1.703169         2.606835         0.081351
 H        -0.497607         0.682954         3.038312
 H        -1.427174        -0.707570         2.593390
 H        -4.445602         0.846803         2.309216
 H        -4.094668         2.542479         2.671212
 H        -5.213817         1.494529         0.490160
 H        -3.957060         2.869868         0.104789
 H        -2.628671        -0.887652         0.473073
