19
Iteration:  2007charge 0 multiplicity 1
 O         0.189552        -0.036079         0.039878
 C        -0.916583         0.557953         0.657025
 C        -1.327711         2.028937         0.977462
 C        -2.399246         1.139918         1.652661
 C        -1.272710         0.247341         2.233903
 C        -3.706850         1.658228         2.097402
 C        -4.313768         1.797549         0.593111
 O        -3.481094         1.081017        -0.359022
 C        -2.601192         0.284944         0.424633
 H        -0.177294        -0.290490        -0.811252
 H        -0.602343         2.366788         1.729956
 H        -1.660036         2.798830         0.216828
 H        -0.769070         0.728151         3.156663
 H        -1.646919        -0.776908         2.518201
 H        -4.262791         0.835028         2.610460
 H        -3.692707         2.492488         2.754686
 H        -5.339133         1.403565         0.494569
 H        -4.299879         2.883211         0.354445
 H        -2.899873        -0.779880         0.580557
