19
Iteration:   841charge 0 multiplicity 1
 O         0.074021         0.100989        -0.050940
 C        -0.971653         0.563631         0.643973
 C        -1.326254         2.061865         1.058012
 C        -2.424720         1.074418         1.738672
 C        -1.311546         0.189230         2.320292
 C        -3.764446         1.758941         1.991499
 C        -4.092775         1.948635         0.463549
 O        -3.625925         0.786334        -0.358524
 C        -2.487450         0.190165         0.506729
 H         0.746258         0.344929         0.548753
 H        -0.560937         2.585471         1.694330
 H        -1.765392         2.683575         0.331002
 H        -0.638519         0.593851         3.090179
 H        -1.522311        -0.808651         2.429739
 H        -4.509704         1.123067         2.440652
 H        -3.520900         2.706249         2.543342
 H        -5.202213         2.010873         0.307980
 H        -3.660636         2.933839         0.272886
 H        -2.480103        -0.868705         0.348842
