19
Iteration:   234
 O         0.066463         0.243144        -0.036584
 C        -1.024873         0.505302         0.764355
 C        -1.204093         1.976192         0.992330
 C        -2.375253         1.185912         1.815612
 C        -1.290111         0.132285         2.303195
 C        -3.771744         1.685156         1.937479
 C        -4.157424         1.969256         0.383610
 O        -3.531184         0.848348        -0.319515
 C        -2.607199         0.234349         0.509512
 H         0.260905        -0.747093        -0.006048
 H        -0.325320         2.348548         1.617425
 H        -1.433755         2.771552         0.207485
 H        -0.500553         0.388000         3.076234
 H        -1.569677        -0.959358         2.493607
 H        -4.497690         0.958290         2.325078
 H        -3.825574         2.545756         2.677035
 H        -5.240253         1.805330         0.202163
 H        -3.851842         2.927735        -0.001998
 H        -2.896712        -0.802167         0.767825
