19
Iteration:   182
 O         0.079207        -0.001137         0.072302
 C        -0.932531         0.532571         0.707646
 C        -1.286041         1.959832         1.003622
 C        -2.442002         1.128958         1.830164
 C        -1.099379         0.208215         2.290838
 C        -3.835440         1.659842         1.926513
 C        -4.318597         1.856666         0.488748
 O        -3.399560         1.081506        -0.421918
 C        -2.639118         0.282829         0.544467
 H        -0.141354        -0.323696        -0.878457
 H        -0.561916         2.727058         1.480490
 H        -1.601010         2.605454         0.143464
 H        -0.364232         0.886160         2.876856
 H        -1.186085        -0.929173         2.439607
 H        -4.461154         0.801804         2.373481
 H        -3.992130         2.623487         2.384614
 H        -5.358355         1.542622         0.362206
 H        -4.245266         2.967793         0.238221
 H        -2.801903        -0.778896         0.811784
