19
Iteration:  1085charge 0 multiplicity 1
 O         0.142884         0.045087         0.055969
 C        -0.954364         0.477020         0.716752
 C        -1.279545         1.957934         0.928844
 C        -2.458169         1.188525         1.747282
 C        -1.289105         0.177017         2.219610
 C        -3.791227         1.546078         2.085269
 C        -4.275895         1.890753         0.462977
 O        -3.427701         1.117260        -0.338595
 C        -2.560049         0.417507         0.497308
 H         0.056411        -0.957301        -0.104119
 H        -0.452704         2.504564         1.528495
 H        -1.625556         2.509730         0.050311
 H        -0.526582         0.555892         2.831913
 H        -1.244119        -0.900375         2.330379
 H        -4.288536         0.611676         2.423512
 H        -4.115063         2.345825         2.714097
 H        -5.273704         1.444633         0.273784
 H        -4.156829         3.018398         0.217087
 H        -2.992481        -0.620573         0.499690
