19
Iteration:  2467charge 0 multiplicity 1
 O         0.110896         0.005449        -0.089323
 C        -0.972087         0.505652         0.657834
 C        -1.255943         1.970700         0.850499
 C        -2.425817         1.176073         1.735688
 C        -1.115114         0.323618         2.240213
 C        -3.859160         1.577907         2.057127
 C        -4.294930         1.825419         0.588548
 O        -3.505964         1.064143        -0.250448
 C        -2.617519         0.256195         0.545236
 H         0.882331         0.154458         0.466876
 H        -0.594737         2.517741         1.485271
 H        -1.481528         2.503868        -0.099320
 H        -0.325675         0.939241         2.780896
 H        -1.407576        -0.659768         2.520448
 H        -4.274830         0.602132         2.332982
 H        -4.107690         2.506593         2.677287
 H        -5.335532         1.525664         0.390500
 H        -4.158838         2.910034         0.324097
 H        -2.872769        -0.785547         0.589381
