19
Iteration:  2287charge 0 multiplicity 1
 O         0.071721        -0.035376        -0.205073
 C        -0.952398         0.527215         0.673998
 C        -1.197406         2.051900         1.018452
 C        -2.399005         1.274811         1.784989
 C        -1.352606         0.254583         2.305623
 C        -3.754840         1.768357         2.005063
 C        -4.351548         1.524546         0.669706
 O        -3.378349         1.072882        -0.412144
 C        -2.575290         0.360160         0.479988
 H         0.892951        -0.110355         0.335404
 H        -0.376692         2.520430         1.477547
 H        -1.741331         2.645418         0.283106
 H        -0.682992         0.593469         3.129928
 H        -1.769973        -0.823408         2.635377
 H        -4.281512         1.115546         2.742880
 H        -3.875560         2.793157         2.337357
 H        -5.014859         0.704896         0.785802
 H        -4.782845         2.447035         0.431618
 H        -2.941180        -0.663977         0.583354
