19
Iteration:  1835charge 0 multiplicity 1
 O         0.118148         0.146349         0.000829
 C        -1.015889         0.541425         0.662503
 C        -1.218736         1.949550         1.059928
 C        -2.400556         1.033018         1.743076
 C        -1.337100         0.055456         2.197114
 C        -3.745511         1.658585         2.024311
 C        -4.262609         1.847229         0.575864
 O        -3.420437         1.106396        -0.357518
 C        -2.619479         0.385850         0.404629
 H         0.378231        -0.759351         0.361584
 H        -0.577330         2.508915         1.699776
 H        -1.622421         2.518087         0.199147
 H        -0.602860         0.588589         2.849431
 H        -1.532027        -0.969604         2.408162
 H        -4.454159         1.081774         2.654942
 H        -3.470285         2.592231         2.548549
 H        -5.300757         1.417834         0.415243
 H        -4.257568         2.879998         0.135437
 H        -3.003633        -0.591689         0.556695
