19
Iteration:  3334
 O         0.102909         0.088135        -0.064483
 C        -1.019407         0.598153         0.708325
 C        -1.322111         2.043067         0.953256
 C        -2.360126         1.229103         1.766496
 C        -1.264116         0.206556         2.208865
 C        -3.778305         1.612728         2.015691
 C        -4.152439         1.936860         0.489067
 O        -3.571565         0.794584        -0.241617
 C        -2.542327         0.211753         0.571050
 H         0.690538         0.727228        -0.542491
 H        -0.597892         2.580256         1.607725
 H        -1.539236         2.486851        -0.061383
 H        -0.494547         0.431758         2.904928
 H        -1.771619        -0.789607         2.326968
 H        -4.406841         0.762670         2.319247
 H        -3.912095         2.459698         2.709180
 H        -5.208895         1.957272         0.263904
 H        -3.852394         3.010628         0.333675
 H        -2.628116        -0.860870         0.624071
