19
Iteration:  4203
 O        -0.002729         0.059166        -0.060047
 C        -0.976244         0.538714         0.790983
 C        -1.355049         2.030955         0.972393
 C        -2.433882         1.134642         1.794461
 C        -1.213428         0.212449         2.257592
 C        -3.826328         1.588792         1.963424
 C        -4.159406         1.863011         0.459733
 O        -3.436514         0.949330        -0.310884
 C        -2.491009         0.287782         0.546871
 H         0.404399         0.776108        -0.587901
 H        -0.629701         2.573477         1.623120
 H        -1.676733         2.567768         0.079046
 H        -0.463962         0.628985         2.931680
 H        -1.532630        -0.883319         2.524474
 H        -4.432100         0.803592         2.421163
 H        -3.955236         2.601045         2.434470
 H        -5.235025         1.820105         0.273949
 H        -3.723959         2.844635         0.337470
 H        -2.746229        -0.795818         0.611073
