19
Iteration:   972
 O         0.162338         0.061991         0.019536
 C        -0.932636         0.502750         0.675474
 C        -1.243631         1.921820         1.116735
 C        -2.405532         1.158065         1.694225
 C        -1.447105         0.192785         2.277083
 C        -3.681767         1.792116         2.027118
 C        -4.366392         1.576872         0.577064
 O        -3.415353         1.192262        -0.408528
 C        -2.499348         0.354993         0.371861
 H         0.130225        -0.576899        -0.695648
 H        -0.497058         2.399430         1.699536
 H        -1.510997         2.435306         0.164769
 H        -0.822666         0.586754         3.091817
 H        -1.942967        -0.652277         2.603948
 H        -4.361393         1.216214         2.676617
 H        -3.698432         2.859215         2.420259
 H        -5.130935         0.811313         0.771662
 H        -4.756688         2.501134         0.233592
 H        -2.913715        -0.674410         0.515604
