19
Iteration:  3472charge 0 multiplicity 1
 O         0.023797        -0.001965         0.018744
 C        -0.940666         0.589215         0.684601
 C        -1.270606         2.058149         1.054844
 C        -2.430255         1.147977         1.727439
 C        -1.333804         0.148903         2.167063
 C        -3.688408         1.938745         1.973055
 C        -4.364136         1.393898         0.676295
 O        -3.365910         1.147649        -0.381837
 C        -2.445219         0.327555         0.481176
 H        -0.134269         0.111365        -0.935116
 H        -0.731473         2.610393         1.780960
 H        -1.747674         2.684028         0.337386
 H        -0.514286         0.605272         2.685457
 H        -1.449046        -0.919292         2.208770
 H        -4.421086         1.626644         2.723711
 H        -3.421731         2.973869         2.107714
 H        -4.871188         0.420075         0.903814
 H        -5.165646         1.977754         0.315683
 H        -2.865071        -0.712676         0.645785
