19
Iteration:  2498charge 0 multiplicity 1
 O         0.012911        -0.054891        -0.097221
 C        -1.001007         0.606778         0.652430
 C        -1.304490         2.095783         0.958170
 C        -2.363906         1.210353         1.707113
 C        -1.269814         0.268054         2.224302
 C        -3.656404         1.685300         2.076022
 C        -4.403380         1.663872         0.624786
 O        -3.383283         1.052370        -0.313763
 C        -2.531302         0.288945         0.466174
 H         0.833058        -0.178211         0.431777
 H        -0.720657         2.720847         1.590599
 H        -1.695813         2.618001         0.085382
 H        -0.485594         0.428235         3.072701
 H        -1.745445        -0.740698         2.428518
 H        -4.102861         0.876394         2.690011
 H        -3.805898         2.649220         2.585378
 H        -5.200370         0.949936         0.572442
 H        -4.586169         2.608564         0.137155
 H        -2.681449        -0.760030         0.601450
