19
Iteration:  4737
 O         0.181996         0.165785        -0.095194
 C        -0.895393         0.531329         0.741351
 C        -1.232644         1.985278         1.033180
 C        -2.427336         1.112624         1.706100
 C        -1.281648         0.313516         2.297261
 C        -3.883307         1.543604         2.014361
 C        -4.260041         1.859547         0.530279
 O        -3.492858         0.925506        -0.366093
 C        -2.555739         0.302451         0.476370
 H         0.200925        -0.792951        -0.108774
 H        -0.677464         2.564021         1.819708
 H        -1.526799         2.628199         0.147433
 H        -0.846367         0.922994         3.055618
 H        -1.580746        -0.682727         2.530384
 H        -4.380865         0.681848         2.438270
 H        -3.938530         2.483355         2.601113
 H        -5.338580         1.687271         0.276343
 H        -3.995008         2.905045         0.363437
 H        -2.983218        -0.679419         0.799045
