19
Iteration:  3293
 O         0.023617         0.156410        -0.193872
 C        -0.946494         0.527354         0.665984
 C        -1.338272         1.950319         1.127512
 C        -2.426108         1.083538         1.817740
 C        -1.165812         0.236717         2.228356
 C        -3.675618         1.828478         1.970588
 C        -4.298386         1.830417         0.455420
 O        -3.446396         0.800110        -0.286672
 C        -2.626413         0.226874         0.552774
 H         0.740309         0.697024         0.168126
 H        -0.752233         2.443815         1.912169
 H        -1.555477         2.706334         0.308589
 H        -0.443211         0.734031         3.009561
 H        -1.582789        -0.797168         2.623806
 H        -4.303359         1.248063         2.652437
 H        -3.740601         2.765834         2.547612
 H        -5.364457         1.767012         0.407610
 H        -4.216293         2.807191        -0.283656
 H        -2.775142        -0.936445         0.649964
