19
Iteration:  1533charge 0 multiplicity 1
 O         0.164527         0.105744         0.069511
 C        -1.003925         0.548205         0.630970
 C        -1.348157         1.934074         1.086067
 C        -2.436844         1.094190         1.730832
 C        -1.275850         0.080676         2.148279
 C        -3.839500         1.619071         2.022505
 C        -4.239568         2.050070         0.628726
 O        -3.410469         1.059818        -0.395134
 C        -2.551210         0.271125         0.418466
 H         0.054921        -0.833845        -0.182225
 H        -0.531426         2.227017         1.716189
 H        -1.606923         2.667457         0.273739
 H        -0.456096         0.499944         2.843349
 H        -1.373616        -1.034753         2.243897
 H        -4.268398         0.863330         2.601526
 H        -3.779579         2.512493         2.658537
 H        -5.295208         1.945000         0.247258
 H        -3.926272         3.073784         0.530644
 H        -3.020551        -0.774725         0.421747
