19
Iteration:  1836
 O         0.123123         0.144653         0.002642
 C        -1.012371         0.538991         0.658862
 C        -1.221794         1.950605         1.057549
 C        -2.391685         1.035814         1.731433
 C        -1.352412         0.064369         2.205014
 C        -3.744684         1.656251         2.034772
 C        -4.265314         1.850488         0.582108
 O        -3.418609         1.103789        -0.366045
 C        -2.617340         0.380028         0.398164
 H         0.379850        -0.767797         0.318048
 H        -0.559779         2.504373         1.712575
 H        -1.607152         2.532567         0.217647
 H        -0.645470         0.573598         2.852773
 H        -1.537799        -0.927754         2.423162
 H        -4.444180         1.085719         2.675662
 H        -3.461230         2.594640         2.598858
 H        -5.291779         1.394604         0.420217
 H        -4.288401         2.878435         0.161838
 H        -3.026703        -0.598047         0.549061
