19
Iteration:   493charge 0 multiplicity 1
 O         0.134138        -0.072259         0.075160
 C        -1.024166         0.509528         0.727286
 C        -1.331689         2.000975         0.961874
 C        -2.372673         1.191916         1.779917
 C        -1.236737         0.251345         2.188759
 C        -3.841510         1.612621         1.977328
 C        -4.263247         1.800015         0.527208
 O        -3.322741         1.104685        -0.340991
 C        -2.583326         0.331826         0.513360
 H         0.037306         0.126313        -0.914128
 H        -0.622404         2.494655         1.612711
 H        -1.716701         2.643783         0.140066
 H        -0.499153         0.668957         2.906022
 H        -1.725269        -0.760923         2.296929
 H        -4.469733         0.818855         2.325997
 H        -4.152377         2.458924         2.603421
 H        -5.243976         1.409987         0.447364
 H        -4.246333         2.879913         0.207487
 H        -2.971619        -0.682747         0.661890
