19
Iteration:  2601charge 0 multiplicity 1
 O         0.068516        -0.094568        -0.046942
 C        -0.929381         0.522642         0.686848
 C        -1.259692         2.053378         0.943471
 C        -2.372360         1.184035         1.763184
 C        -1.186441         0.219012         2.164246
 C        -3.789343         1.743435         1.988409
 C        -4.471780         1.585066         0.660349
 O        -3.419204         1.072133        -0.314796
 C        -2.514577         0.396879         0.509751
 H         0.856596         0.481175        -0.176836
 H        -0.539925         2.620057         1.661111
 H        -1.551172         2.671075         0.103688
 H        -0.528864         0.708664         2.895845
 H        -1.535245        -0.811255         2.372716
 H        -4.429219         1.340208         2.836563
 H        -3.759625         2.849169         2.279185
 H        -5.425798         1.059769         0.555909
 H        -4.896802         2.580671         0.288387
 H        -2.773777        -0.645115         0.510617
