19
Iteration:  2785
 O         0.112098        -0.145464         0.028558
 C        -0.956163         0.529618         0.615271
 C        -1.309989         2.091523         0.928354
 C        -2.348920         1.232639         1.741821
 C        -1.253963         0.311353         2.139858
 C        -3.802844         1.677248         2.114160
 C        -4.402416         1.629785         0.619838
 O        -3.373128         1.089673        -0.362498
 C        -2.483596         0.376909         0.520900
 H         0.342722         0.245873        -0.841196
 H        -0.654395         2.709556         1.460499
 H        -1.924638         2.435593         0.166468
 H        -0.498001         0.639193         2.862191
 H        -1.627301        -0.680978         2.523190
 H        -4.278870         0.952626         2.712887
 H        -3.925057         2.583232         2.700149
 H        -5.268727         0.884646         0.754692
 H        -4.871168         2.527534         0.252755
 H        -2.892632        -0.636806         0.723946
