19
Iteration:  2810charge 0 multiplicity 1
 O         0.026606        -0.022015        -0.034340
 C        -0.952181         0.550763         0.729512
 C        -1.153884         2.079319         0.996952
 C        -2.328117         1.224202         1.690619
 C        -1.214421         0.305631         2.257968
 C        -3.786765         1.719964         1.990935
 C        -4.417029         1.485523         0.612664
 O        -3.432293         1.139311        -0.338626
 C        -2.489790         0.322457         0.447906
 H        -0.468028        -0.474317        -0.720599
 H        -0.461653         2.460328         1.748402
 H        -1.537512         2.664812         0.143078
 H        -0.519119         0.529479         3.051160
 H        -1.525587        -0.840231         2.360280
 H        -4.240668         1.128825         2.873766
 H        -3.972104         2.750917         2.338253
 H        -5.298868         0.894382         0.746337
 H        -4.916660         2.410471         0.181997
 H        -2.932029        -0.690588         0.660039
