19
Iteration:  4369charge 0 multiplicity 1
 O         0.043152         0.033302        -0.013577
 C        -0.994331         0.563928         0.737278
 C        -1.328422         2.110504         0.975539
 C        -2.378472         1.182756         1.766051
 C        -1.280601         0.187986         2.395974
 C        -3.698121         1.676975         2.026614
 C        -4.392918         1.599165         0.530705
 O        -3.292510         1.088835        -0.441754
 C        -2.473516         0.310690         0.431717
 H        -0.477154        -0.129128        -0.808605
 H        -0.732080         2.690423         1.630497
 H        -1.855209         2.610682         0.100682
 H        -0.521433         0.416460         3.156410
 H        -1.800323        -0.745884         2.441779
 H        -4.262974         1.233126         2.880248
 H        -3.674191         2.707314         2.325018
 H        -5.113697         0.756359         0.590727
 H        -4.607646         2.612523         0.157324
 H        -2.875788        -0.729078         0.579696
