19
Iteration:   547
 O         0.129205         0.119150        -0.063619
 C        -1.079139         0.492736         0.679231
 C        -1.238457         2.001119         1.092238
 C        -2.444809         1.152587         1.782606
 C        -1.231359         0.069912         2.203516
 C        -3.817252         1.813962         1.949413
 C        -4.246637         1.947738         0.407132
 O        -3.477105         0.833927        -0.312171
 C        -2.547224         0.261231         0.614764
 H         0.891336         0.639787         0.304156
 H        -0.538590         2.336765         1.836672
 H        -1.585315         2.664782         0.274878
 H        -0.345191         0.468760         2.806815
 H        -1.629994        -0.999618         2.361745
 H        -4.511795         1.144521         2.370733
 H        -3.885428         2.631765         2.648436
 H        -5.265377         1.837285         0.183740
 H        -3.886018         2.872484        -0.176744
 H        -2.902881        -0.768553         0.789188
