19
Iteration:  4433
 O         0.092461         0.044144        -0.030445
 C        -0.953332         0.568439         0.743941
 C        -1.324936         2.088450         0.997705
 C        -2.394200         1.207204         1.726557
 C        -1.322072         0.213849         2.239061
 C        -3.813081         1.651796         2.057483
 C        -4.171348         1.806813         0.512928
 O        -3.508540         0.823763        -0.323406
 C        -2.478902         0.312725         0.459919
 H         0.579325         0.849573        -0.351819
 H        -0.716657         2.697565         1.648726
 H        -1.736412         2.630374         0.056897
 H        -0.586193         0.601177         2.992243
 H        -1.558768        -0.866554         2.518322
 H        -4.414989         0.800102         2.412156
 H        -3.846757         2.586472         2.616118
 H        -5.313122         1.546729         0.484708
 H        -4.003602         2.777032        -0.037492
 H        -2.731599        -0.753236         0.607897
