19
Iteration:  1768
 O        -0.107353         0.087080        -0.161702
 C        -1.103477         0.498393         0.752694
 C        -1.229124         2.034297         1.105714
 C        -2.375632         1.122350         1.741510
 C        -1.339485         0.102139         2.388878
 C        -3.769213         1.562368         2.014730
 C        -4.126752         2.018776         0.535996
 O        -3.304241         0.971318        -0.402753
 C        -2.505172         0.275560         0.424961
 H         0.454332         0.837332        -0.259484
 H        -0.581887         2.510642         1.791107
 H        -1.553882         2.628444         0.204706
 H        -0.608566         0.469927         3.166479
 H        -1.839995        -0.858743         2.585217
 H        -4.365835         0.600544         2.091937
 H        -4.167432         2.163471         2.807798
 H        -5.222268         1.919803         0.314834
 H        -3.798777         3.086845         0.302503
 H        -2.823087        -0.707780         0.582039
