19
Iteration:  2778
 O         0.115964        -0.148109         0.036441
 C        -0.989326         0.533438         0.621252
 C        -1.349391         2.090416         0.911907
 C        -2.319628         1.231194         1.720173
 C        -1.222363         0.325715         2.179825
 C        -3.801935         1.681039         2.102459
 C        -4.352780         1.621207         0.611584
 O        -3.420367         1.112455        -0.310214
 C        -2.511706         0.305357         0.503399
 H         0.466905         0.472133        -0.659423
 H        -0.593552         2.673721         1.502948
 H        -1.811016         2.699258         0.046462
 H        -0.429906         0.652003         2.831066
 H        -1.562121        -0.774282         2.251462
 H        -4.285725         0.785370         2.664451
 H        -4.053725         2.661806         2.555603
 H        -5.159766         0.953101         0.731146
 H        -4.590434         2.612081         0.144023
 H        -3.018487        -0.670947         0.645574
