19
Iteration:   475
 O         0.100705        -0.025585         0.106299
 C        -1.032386         0.445298         0.635716
 C        -1.301105         2.046334         0.960934
 C        -2.435448         1.229368         1.794212
 C        -1.194383         0.179926         2.201254
 C        -3.862049         1.565915         2.002817
 C        -4.381332         1.807701         0.460252
 O        -3.258970         1.214845        -0.341445
 C        -2.570858         0.270088         0.564696
 H         0.240532        -0.476713        -0.770453
 H        -0.442766         2.430790         1.581745
 H        -1.656213         2.593656         0.140544
 H        -0.348622         0.780312         2.576467
 H        -1.260056        -0.755020         2.646303
 H        -4.218673         0.805296         2.787829
 H        -3.972585         2.538783         2.552923
 H        -5.316212         1.269542         0.021240
 H        -4.431648         2.839419         0.199205
 H        -3.205462        -0.627576         0.730378
