19
Iteration:  2557charge 0 multiplicity 1
 O        -0.049518         0.030496        -0.230339
 C        -1.007466         0.543736         0.717229
 C        -1.148288         1.934145         1.060927
 C        -2.389174         1.225944         1.759238
 C        -1.347832         0.218348         2.280226
 C        -3.767327         1.851410         1.915317
 C        -4.384017         1.406108         0.666589
 O        -3.290685         1.126346        -0.307740
 C        -2.492306         0.339975         0.538693
 H         0.649944         0.720977        -0.271914
 H        -0.383574         2.463268         1.668553
 H        -1.486607         2.453570         0.165338
 H        -0.567242         0.588198         2.891778
 H        -1.728243        -0.768960         2.457536
 H        -4.318577         1.602622         2.846491
 H        -3.712608         2.988342         1.835601
 H        -5.023774         0.580401         0.910868
 H        -5.077204         2.197876         0.292688
 H        -2.949428        -0.615754         0.684481
