19
Iteration:  1443charge 0 multiplicity 1
 O         0.195150         0.067322        -0.033802
 C        -1.014092         0.497357         0.711597
 C        -1.302894         1.966778         1.220242
 C        -2.411888         1.117340         1.825277
 C        -1.293202         0.018747         2.149367
 C        -3.799042         1.744591         1.963464
 C        -4.245082         1.903277         0.485745
 O        -3.434408         1.073653        -0.355605
 C        -2.595193         0.361107         0.462908
 H        -0.072450        -0.191286        -0.909653
 H        -0.482620         2.274763         1.897753
 H        -1.442784         2.715766         0.453326
 H        -0.444568         0.352051         2.827344
 H        -1.533380        -1.085555         2.359409
 H        -4.521517         1.173314         2.416330
 H        -3.862267         2.664069         2.542892
 H        -5.230064         1.381153         0.327934
 H        -4.356341         2.901045         0.101426
 H        -2.764335        -0.789792         0.530136
