19
Iteration:  1705charge 0 multiplicity 1
 O         0.202411         0.001087         0.116180
 C        -0.982230         0.524782         0.660821
 C        -1.377504         2.000203         1.134596
 C        -2.391629         1.050789         1.685015
 C        -1.356162         0.083429         2.181968
 C        -3.647803         1.705021         2.090683
 C        -4.270313         1.788107         0.566212
 O        -3.458036         1.178070        -0.407690
 C        -2.571884         0.373139         0.324192
 H         0.035154        -0.161987        -0.828809
 H        -0.785430         2.446239         1.903687
 H        -1.590103         2.760779         0.304136
 H        -0.815650         0.271610         3.111621
 H        -1.725587        -0.866928         2.215654
 H        -4.211652         1.074989         2.842130
 H        -3.636555         2.771845         2.508041
 H        -5.279165         1.389721         0.326034
 H        -4.241653         2.836372         0.367635
 H        -2.960956        -0.735486         0.329468
