19
Iteration:  4747charge 0 multiplicity 1
 O         0.204994         0.195704        -0.026483
 C        -0.978202         0.563940         0.732682
 C        -1.256667         2.006677         0.954319
 C        -2.429587         1.134441         1.739450
 C        -1.274239         0.227871         2.293661
 C        -3.846565         1.542574         2.020850
 C        -4.260435         1.838275         0.471555
 O        -3.517675         0.982476        -0.349236
 C        -2.590793         0.246706         0.509303
 H         0.339723        -0.745319         0.110706
 H        -0.502211         2.616921         1.502165
 H        -1.657816         2.543811         0.030873
 H        -0.584781         0.655751         2.948300
 H        -1.221197        -0.801900         2.629391
 H        -4.395322         0.755884         2.512788
 H        -3.964487         2.451105         2.687328
 H        -5.356595         1.986488         0.316823
 H        -3.754857         2.766018         0.283398
 H        -2.744094        -0.843335         0.461090
