19
Iteration:  3278charge 0 multiplicity 1
 O         0.001116         0.170831        -0.197987
 C        -1.037269         0.503636         0.708169
 C        -1.295497         1.960375         1.001160
 C        -2.376988         1.182445         1.809855
 C        -1.252150         0.175677         2.310014
 C        -3.774245         1.770192         1.999349
 C        -4.253518         1.762356         0.491618
 O        -3.434596         0.932043        -0.328951
 C        -2.497471         0.216694         0.606001
 H         0.872401         0.473012         0.087250
 H        -0.464713         2.511433         1.513344
 H        -1.721219         2.534001         0.135852
 H        -0.518008         0.621263         2.909304
 H        -1.391335        -0.870771         2.581415
 H        -4.512768         1.200705         2.608007
 H        -3.650413         2.786603         2.359749
 H        -5.213970         1.237137         0.396379
 H        -4.243522         2.716921         0.067095
 H        -2.860267        -0.759280         0.789806
