19
Iteration:  2071charge 0 multiplicity 1
 O        -0.049975         0.061987        -0.208289
 C        -1.026866         0.583448         0.632391
 C        -1.376943         2.031113         1.115397
 C        -2.420735         1.094817         1.768217
 C        -1.290414         0.303343         2.288383
 C        -3.723049         1.702591         2.024025
 C        -4.151095         1.836749         0.542682
 O        -3.412039         0.869312        -0.332669
 C        -2.452747         0.251732         0.501697
 H         0.624361        -0.409721         0.297026
 H        -0.605082         2.313641         1.897828
 H        -1.698948         2.886242         0.389060
 H        -0.599186         0.795381         2.968359
 H        -1.523990        -0.697926         2.598548
 H        -4.430755         1.059293         2.682319
 H        -3.669323         2.663775         2.555613
 H        -5.245921         1.696345         0.262751
 H        -3.918953         2.870350         0.153955
 H        -2.722750        -0.772404         0.501283
