19
Iteration:   810charge 0 multiplicity 1
 O         0.054943         0.089213        -0.149951
 C        -0.910829         0.471097         0.762253
 C        -1.240454         1.991368         1.033045
 C        -2.433809         1.202241         1.716412
 C        -1.313346         0.248492         2.306929
 C        -3.837379         1.657693         1.975347
 C        -4.248844         1.897974         0.481486
 O        -3.444990         0.900356        -0.324718
 C        -2.548924         0.281002         0.551631
 H         0.879380        -0.192514         0.390764
 H        -0.580900         2.634116         1.677047
 H        -1.599898         2.573599         0.150254
 H        -0.652298         0.798707         3.070135
 H        -1.615393        -0.758327         2.607229
 H        -4.457862         0.862697         2.350485
 H        -3.974194         2.508172         2.645777
 H        -5.305956         1.603897         0.223573
 H        -3.945132         2.918980         0.074222
 H        -2.587514        -0.826711         0.609474
