19
Iteration:  1989charge 0 multiplicity 1
 O         0.117825        -0.013219        -0.030271
 C        -0.904877         0.542011         0.743011
 C        -1.296451         2.061894         1.080282
 C        -2.423499         1.103259         1.772868
 C        -1.251937         0.142825         2.169920
 C        -3.762483         1.721670         1.989316
 C        -4.398537         1.797185         0.632322
 O        -3.502630         1.050661        -0.340488
 C        -2.416845         0.368381         0.397864
 H        -0.106087        -0.869457        -0.396243
 H        -0.726928         2.758629         1.703325
 H        -1.680448         2.469007         0.217161
 H        -0.412601         0.614359         2.766944
 H        -1.456319        -0.908003         2.359148
 H        -4.444457         1.288617         2.700219
 H        -3.615204         2.807917         2.249951
 H        -5.359680         1.332113         0.423573
 H        -4.419418         2.784482         0.212892
 H        -2.642686        -0.764301         0.407332
