19
Iteration:  4361charge 0 multiplicity 1
 O         0.059851         0.017030         0.005516
 C        -0.991322         0.555502         0.763674
 C        -1.313350         2.149467         1.003382
 C        -2.365987         1.190121         1.712669
 C        -1.323053         0.168226         2.291374
 C        -3.731494         1.721746         2.033773
 C        -4.322136         1.544057         0.504430
 O        -3.361392         1.090030        -0.371475
 C        -2.468594         0.354257         0.448614
 H        -0.311674        -0.438834        -0.778483
 H        -0.530478         2.760455         1.549836
 H        -1.677585         2.673462         0.139549
 H        -0.622219         0.472761         3.126264
 H        -1.579797        -0.836549         2.518294
 H        -4.245862         1.011795         2.726490
 H        -3.674112         2.773508         2.288666
 H        -5.135409         0.836635         0.461626
 H        -4.861754         2.480104         0.349925
 H        -2.816097        -0.683388         0.515616
