19
Iteration:  2921
 O         0.053761        -0.057804         0.012303
 C        -0.983904         0.536461         0.682069
 C        -1.210660         2.110462         0.861948
 C        -2.372425         1.266626         1.744602
 C        -1.264043         0.291637         2.157923
 C        -3.799011         1.507047         2.029317
 C        -4.349833         1.774105         0.597102
 O        -3.407016         1.063207        -0.269872
 C        -2.544654         0.253514         0.547130
 H         0.284200         0.399703        -0.836561
 H        -0.384326         2.480602         1.455234
 H        -1.545253         2.693108        -0.011030
 H        -0.569692         0.661438         3.005932
 H        -1.697488        -0.683855         2.466640
 H        -4.279298         0.673082         2.648204
 H        -3.963530         2.442722         2.600992
 H        -5.356402         1.315333         0.568234
 H        -4.179424         2.827183         0.256593
 H        -2.840457        -0.818688         0.665378
