19
Iteration:  3097charge 0 multiplicity 1
 O        -0.004652        -0.046744        -0.182686
 C        -0.967311         0.498540         0.734571
 C        -1.259653         1.967939         0.949144
 C        -2.327608         1.243445         1.785502
 C        -1.306872         0.327487         2.341486
 C        -3.758196         1.522856         2.045336
 C        -4.389868         1.762489         0.528774
 O        -3.351463         1.103732        -0.333982
 C        -2.511399         0.332710         0.543388
 H         0.796473         0.532763        -0.184704
 H        -0.638534         2.579611         1.585823
 H        -1.729978         2.549851         0.185272
 H        -0.422463         0.635024         2.841504
 H        -1.654587        -0.586441         2.702341
 H        -4.284158         0.672191         2.436531
 H        -3.942251         2.443877         2.530916
 H        -5.311344         1.211880         0.344684
 H        -4.413488         2.769041         0.077905
 H        -2.929119        -0.630440         0.740660
