19
Iteration:   212charge 0 multiplicity 1
 O         0.102699         0.050419        -0.026602
 C        -0.944957         0.585177         0.655164
 C        -1.328140         2.023988         1.066157
 C        -2.436551         1.219841         1.717146
 C        -1.440735         0.241219         2.248020
 C        -3.734693         1.652016         2.041244
 C        -4.129070         1.875164         0.490953
 O        -3.491471         0.843295        -0.330187
 C        -2.455047         0.304393         0.464785
 H         0.041727        -0.815723        -0.393050
 H        -0.635709         2.637424         1.743614
 H        -1.656657         2.673371         0.148395
 H        -0.711768         0.460677         3.093005
 H        -1.819998        -0.803760         2.575503
 H        -4.368115         0.998934         2.628232
 H        -3.953809         2.644975         2.561739
 H        -5.208264         1.994376         0.236163
 H        -3.661998         2.821384         0.416296
 H        -2.652725        -0.777926         0.629451
