19
Iteration:  4958
 O         0.223687         0.081768         0.078727
 C        -0.885928         0.587322         0.678928
 C        -1.280637         2.014548         1.050578
 C        -2.395763         1.080612         1.729133
 C        -1.244002         0.168396         2.195229
 C        -3.749187         1.734757         1.967151
 C        -4.405865         1.755921         0.575992
 O        -3.503188         0.996618        -0.366178
 C        -2.636486         0.278792         0.443967
 H         0.594531         0.679618        -0.578453
 H        -0.581554         2.546880         1.783962
 H        -1.649759         2.685553         0.207888
 H        -0.613441         0.320400         3.088210
 H        -1.531319        -0.828846         2.416332
 H        -4.410660         1.069154         2.583820
 H        -3.748670         2.702589         2.451640
 H        -5.340483         1.178526         0.448276
 H        -4.642714         2.688418         0.098818
 H        -2.904445        -0.786145         0.544555
