19
Iteration:   216
 O         0.091980         0.090074        -0.028212
 C        -0.983728         0.614045         0.659223
 C        -1.282922         2.054918         1.051089
 C        -2.408505         1.203019         1.724043
 C        -1.454998         0.205355         2.264757
 C        -3.729554         1.673653         2.017622
 C        -4.097389         1.856743         0.528770
 O        -3.509343         0.819583        -0.373777
 C        -2.476937         0.290589         0.490375
 H         0.068640        -0.873208        -0.283669
 H        -0.614550         2.637232         1.721991
 H        -1.637568         2.553389         0.153685
 H        -0.735512         0.418580         3.113759
 H        -1.870095        -0.785615         2.552000
 H        -4.384219         0.951585         2.591050
 H        -3.967655         2.599937         2.473176
 H        -5.145289         2.036252         0.350426
 H        -3.550718         2.844445         0.396682
 H        -2.755474        -0.760522         0.663208
