19
Iteration:  2244charge 0 multiplicity 1
 O        -0.059327         0.026622        -0.233729
 C        -1.001195         0.512375         0.675711
 C        -1.348359         2.045757         1.133866
 C        -2.357955         1.165558         1.925351
 C        -1.131372         0.145304         2.254320
 C        -3.812828         1.919713         1.934639
 C        -4.318251         1.603828         0.484909
 O        -3.362888         1.035214        -0.359912
 C        -2.479744         0.266709         0.591168
 H         0.762306         0.488715         0.000771
 H        -0.570702         2.523402         1.667533
 H        -1.699767         2.618688         0.265395
 H        -0.431974         0.343034         3.089094
 H        -1.355941        -1.025757         2.404461
 H        -4.684190         1.705284         2.644440
 H        -3.565628         2.973101         2.099587
 H        -5.166279         0.798564         0.638778
 H        -4.752105         2.395297        -0.089987
 H        -2.864412        -0.764949         0.907555
