19
Iteration:    27charge 0 multiplicity 1
 O         0.052870        -0.141535         0.064228
 C        -0.926303         0.548119         0.708780
 C        -1.271730         2.048724         0.920598
 C        -2.353052         1.334722         1.762497
 C        -1.129969         0.116438         2.201883
 C        -3.864886         1.735919         1.981339
 C        -4.450847         1.658442         0.471621
 O        -3.407486         1.060180        -0.370066
 C        -2.491095         0.418171         0.581059
 H         0.666594         0.436144        -0.348021
 H        -0.490453         2.671552         1.518987
 H        -1.772427         2.799030         0.179689
 H        -0.447648         0.287768         3.090573
 H        -1.478928        -1.015442         2.397625
 H        -4.366422         1.043489         2.668305
 H        -4.108092         2.769379         2.417183
 H        -5.307930         0.937389         0.549537
 H        -4.798801         2.604928         0.104039
 H        -2.842693        -0.604543         0.916304
