19
Iteration:  4980
 O         0.137119         0.111594         0.074988
 C        -0.964791         0.475719         0.703699
 C        -1.442793         2.053575         0.954465
 C        -2.402313         1.173839         1.780311
 C        -1.267786         0.115777         2.153937
 C        -3.794802         1.669722         2.094866
 C        -4.277987         1.732303         0.509609
 O        -3.373040         1.047756        -0.367185
 C        -2.468565         0.294115         0.523749
 H         0.021679         0.375302        -0.875815
 H        -0.684584         2.769650         1.443618
 H        -1.862090         2.572940         0.072918
 H        -0.563406         0.395568         2.966628
 H        -1.421851        -0.886026         2.414126
 H        -4.410382         0.966385         2.710208
 H        -3.910065         2.679775         2.476139
 H        -5.298041         1.343001         0.243561
 H        -4.329704         2.756628         0.166692
 H        -2.809575        -0.747492         0.553113
