19
Iteration:   703
 O         0.115797        -0.006880         0.008925
 C        -0.998080         0.488021         0.699346
 C        -1.252064         2.007004         1.045542
 C        -2.414678         1.219800         1.846718
 C        -1.331622         0.009920         2.174857
 C        -3.792675         2.000671         1.923583
 C        -4.424666         1.514994         0.533213
 O        -3.343678         1.108334        -0.366720
 C        -2.488572         0.353376         0.564225
 H         0.620903         0.813868        -0.291214
 H        -0.390372         2.330106         1.619608
 H        -1.526890         2.674822         0.195891
 H        -0.467214         0.439296         2.760107
 H        -1.603022        -1.050429         2.322211
 H        -4.516930         1.612062         2.651284
 H        -3.608633         3.074734         1.920325
 H        -5.057084         0.670094         0.470216
 H        -4.925386         2.271288        -0.060818
 H        -2.928152        -0.629350         0.828261
