19
Iteration:   987
 O         0.190499         0.151835        -0.040105
 C        -1.032444         0.495148         0.688711
 C        -1.191743         1.963218         1.034263
 C        -2.377833         1.132230         1.748722
 C        -1.443532         0.080833         2.400684
 C        -3.752711         1.858148         1.979073
 C        -4.332132         1.621315         0.631690
 O        -3.364976         1.140555        -0.451062
 C        -2.563750         0.309620         0.374316
 H        -0.169503        -0.723834        -0.418839
 H        -0.560366         2.370494         1.858221
 H        -1.470769         2.860344         0.401492
 H        -0.732554         0.405464         3.148002
 H        -1.664020        -1.026661         2.511834
 H        -4.252227         1.475902         2.870582
 H        -3.579535         2.892702         2.124394
 H        -5.074267         0.800161         0.618320
 H        -4.955247         2.453054         0.173316
 H        -2.889844        -0.743808         0.411790
