19
Iteration:   927charge 0 multiplicity 1
 O         0.083194        -0.130119         0.051228
 C        -0.973515         0.526337         0.686597
 C        -1.287299         2.068187         1.063677
 C        -2.384742         1.220107         1.833022
 C        -1.252527         0.202842         2.203370
 C        -3.823391         1.639422         2.005613
 C        -4.403534         1.712832         0.453844
 O        -3.320540         1.141813        -0.395442
 C        -2.470564         0.405288         0.526461
 H        -0.296791        -0.191278        -0.873852
 H        -0.564176         2.536652         1.763778
 H        -1.663791         2.673316         0.290519
 H        -0.382924         0.620070         2.725255
 H        -1.377089        -0.828655         2.405346
 H        -4.428845         0.898246         2.582773
 H        -3.961615         2.634637         2.567581
 H        -5.221623         0.986882         0.434838
 H        -4.654299         2.677253         0.079618
 H        -2.973860        -0.535371         0.401981
