19
Iteration:  1969charge 0 multiplicity 1
 O         0.071259         0.100912        -0.122816
 C        -1.027175         0.592240         0.654530
 C        -1.226752         1.966835         1.094275
 C        -2.367644         1.165064         1.793429
 C        -1.235557         0.091326         2.195267
 C        -3.779809         1.808463         2.038768
 C        -4.341832         1.705722         0.479893
 O        -3.378953         1.056535        -0.361059
 C        -2.587965         0.304209         0.565310
 H         0.250137        -0.796947         0.246609
 H        -0.514019         2.345412         1.865717
 H        -1.483248         2.734318         0.391988
 H        -0.529946         0.316778         2.919787
 H        -1.575018        -0.911873         2.126262
 H        -4.290773         1.178950         2.775302
 H        -3.731843         2.906336         2.354844
 H        -5.285515         1.128007         0.735895
 H        -4.609140         2.606812        -0.092341
 H        -2.982603        -0.667596         0.688137
