19
Iteration:  3205charge 0 multiplicity 1
 O         0.018264        -0.165874        -0.063621
 C        -0.945064         0.619553         0.711534
 C        -1.226093         2.094983         0.936556
 C        -2.381308         1.228882         1.746575
 C        -1.235647         0.267803         2.173417
 C        -3.804258         1.613449         2.060839
 C        -4.430548         1.575555         0.570497
 O        -3.392475         1.165226        -0.340404
 C        -2.460703         0.417531         0.511439
 H         0.867762        -0.027646         0.373359
 H        -0.499376         2.664819         1.502168
 H        -1.423767         2.566896        -0.031884
 H        -0.641522         0.672213         3.012474
 H        -1.703692        -0.767791         2.426945
 H        -4.242726         0.797689         2.636842
 H        -4.044103         2.559337         2.557865
 H        -5.218360         0.748000         0.773492
 H        -4.926848         2.595882         0.213952
 H        -2.853891        -0.651035         0.597585
