19
Iteration:  3970
 O         0.138510        -0.042437        -0.023978
 C        -0.949792         0.474796         0.771899
 C        -1.326111         1.977989         0.870400
 C        -2.412899         1.136909         1.745435
 C        -1.233542         0.332474         2.273502
 C        -3.832781         1.598942         2.044824
 C        -4.301029         1.772536         0.580995
 O        -3.383968         1.172863        -0.354204
 C        -2.578305         0.255314         0.475473
 H         0.150621         0.536581        -0.796719
 H        -0.806705         2.666072         1.518231
 H        -1.747608         2.550377        -0.010569
 H        -0.516262         0.917429         2.980162
 H        -1.428945        -0.701314         2.564138
 H        -4.239077         0.667946         2.505366
 H        -3.993949         2.438591         2.717553
 H        -5.185841         1.185236         0.567532
 H        -4.293761         2.767257         0.302243
 H        -2.871343        -0.747402         0.688932
