19
Iteration:   218
 O         0.091087         0.109452        -0.030047
 C        -0.999687         0.613803         0.666595
 C        -1.263234         2.068740         1.042077
 C        -2.389691         1.193059         1.731678
 C        -1.450859         0.186980         2.279759
 C        -3.741680         1.677759         2.006849
 C        -4.084653         1.854895         0.542295
 O        -3.517017         0.814941        -0.387645
 C        -2.490033         0.283764         0.498710
 H         0.039901        -0.879683        -0.219688
 H        -0.626220         2.609283         1.684871
 H        -1.613175         2.531824         0.171543
 H        -0.768731         0.430508         3.065996
 H        -1.884570        -0.756240         2.498831
 H        -4.360116         0.926078         2.544122
 H        -3.943111         2.638027         2.465229
 H        -5.146743         2.035694         0.373287
 H        -3.532897         2.836485         0.338690
 H        -2.789937        -0.753550         0.676378
