19
Iteration:  4861
 O        -0.001311         0.024282        -0.077457
 C        -0.931079         0.560597         0.810818
 C        -1.377199         2.048019         1.094575
 C        -2.374024         1.128741         1.727111
 C        -1.191655         0.269619         2.276235
 C        -3.801565         1.602628         1.963612
 C        -4.361130         1.682315         0.468936
 O        -3.255362         1.121302        -0.349800
 C        -2.496462         0.294768         0.498977
 H        -0.518461        -0.232407        -0.841607
 H        -0.870485         2.711133         1.870520
 H        -1.633786         2.642315         0.197269
 H        -0.504382         0.677885         3.112189
 H        -1.401218        -0.703484         2.691536
 H        -4.489519         0.872560         2.507857
 H        -3.793537         2.597152         2.430028
 H        -5.289006         1.091291         0.414658
 H        -4.564563         2.692069         0.005178
 H        -2.897499        -0.757895         0.501922
