19
Iteration:   737charge 0 multiplicity 1
 O         0.003407        -0.073809        -0.058384
 C        -0.929134         0.498001         0.741163
 C        -1.123547         2.013008         1.051231
 C        -2.368444         1.215555         1.745582
 C        -1.440065         0.241791         2.324454
 C        -3.742561         1.743006         1.921970
 C        -4.472752         1.527937         0.518448
 O        -3.380099         1.157099        -0.390411
 C        -2.435170         0.370278         0.435842
 H         0.788410         0.483536         0.063792
 H        -0.412007         2.434192         1.757525
 H        -1.223538         2.815603         0.244266
 H        -0.691764         0.646595         3.043356
 H        -1.689913        -0.756921         2.773559
 H        -4.233209         1.312693         2.843321
 H        -3.811340         2.784761         2.265950
 H        -5.256042         0.745302         0.621839
 H        -4.924138         2.477226         0.201461
 H        -2.859334        -0.636304         0.626715
