19
Iteration:  3839
 O         0.137749        -0.042741        -0.098622
 C        -0.975702         0.543058         0.637739
 C        -1.334067         2.119969         1.093201
 C        -2.411909         1.246814         1.678853
 C        -1.229937         0.299116         2.163046
 C        -3.835130         1.565294         2.080041
 C        -4.320563         1.815994         0.558319
 O        -3.448974         0.995632        -0.296004
 C        -2.539985         0.247047         0.474459
 H         0.742623        -0.387617         0.555353
 H        -0.560343         2.529712         1.723656
 H        -1.506783         2.671967         0.144227
 H        -0.314712         0.789707         2.700437
 H        -1.517741        -0.707654         2.436171
 H        -4.415652         0.683852         2.485388
 H        -3.911831         2.379707         2.779474
 H        -5.354095         1.567432         0.359565
 H        -4.129438         2.895305         0.190062
 H        -2.768022        -0.759357         0.839546
