19
Iteration:  3186
 O         0.051990         0.032918        -0.097948
 C        -1.031198         0.495631         0.655492
 C        -1.274392         2.024238         0.962202
 C        -2.309261         1.295314         1.712500
 C        -1.364644         0.206506         2.285802
 C        -3.739295         1.738968         2.054396
 C        -4.379340         1.544401         0.573354
 O        -3.338190         1.104714        -0.341289
 C        -2.536138         0.303821         0.459533
 H         0.824965        -0.024097         0.495667
 H        -0.491535         2.527870         1.541099
 H        -1.741645         2.720989         0.242440
 H        -0.492832         0.482792         2.950421
 H        -1.598833        -0.784715         2.539242
 H        -4.141933         1.012019         2.803551
 H        -3.666960         2.824154         2.376613
 H        -5.206273         0.762088         0.758807
 H        -4.738033         2.574304         0.358700
 H        -3.035355        -0.643001         0.645491
