19
Iteration:  2088
 O        -0.036804         0.192024        -0.197556
 C        -1.037530         0.555162         0.803466
 C        -1.281715         2.080078         1.108060
 C        -2.382727         1.181407         1.812349
 C        -1.196023         0.144758         2.245041
 C        -3.750253         1.732904         2.033367
 C        -4.177661         1.809039         0.439835
 O        -3.460260         0.859711        -0.343524
 C        -2.543069         0.178872         0.507654
 H         0.125346        -0.750200        -0.097664
 H        -0.727399         2.728066         1.745604
 H        -1.579494         2.657677         0.284476
 H        -0.433872         0.586845         2.968964
 H        -1.520310        -0.925569         2.442129
 H        -4.389133         1.187968         2.674585
 H        -3.768556         2.820193         2.337756
 H        -5.228498         1.766873         0.193633
 H        -3.859579         2.801641         0.075975
 H        -2.721036        -0.931554         0.765899
