19
Iteration:  3999
 O         0.231361         0.003610         0.147503
 C        -0.996748         0.528069         0.641071
 C        -1.321418         1.969581         0.974194
 C        -2.405347         1.137092         1.717466
 C        -1.266097         0.200493         2.122123
 C        -3.760873         1.732192         2.036905
 C        -4.431396         1.702041         0.629572
 O        -3.470312         1.095781        -0.366841
 C        -2.494092         0.309778         0.446005
 H         0.290747         0.304167        -0.783730
 H        -0.572946         2.532481         1.562900
 H        -1.732058         2.585451         0.154464
 H        -0.523715         0.665589         2.741292
 H        -1.548493        -0.828278         2.227870
 H        -4.236677         1.240874         2.888173
 H        -3.566717         2.754852         2.359352
 H        -5.417886         1.113168         0.669662
 H        -4.468946         2.794462         0.255185
 H        -2.764818        -0.750236         0.766248
