19
Iteration:   174
 O         0.056475         0.003142         0.097143
 C        -1.029418         0.485848         0.742693
 C        -1.318762         1.926954         0.964170
 C        -2.362341         1.200393         1.820626
 C        -1.104411         0.210271         2.250861
 C        -3.829080         1.633360         1.986327
 C        -4.335856         1.799799         0.438830
 O        -3.352851         1.111685        -0.418308
 C        -2.602895         0.336196         0.554744
 H        -0.046453         0.137334        -0.900234
 H        -0.539356         2.426602         1.482525
 H        -1.758259         2.417213         0.145078
 H        -0.358354         0.718208         2.848633
 H        -1.170798        -0.807856         2.521690
 H        -4.300761         0.857689         2.626800
 H        -3.941474         2.609025         2.440899
 H        -5.331922         1.433910         0.159343
 H        -4.244580         2.903535         0.186925
 H        -3.048676        -0.689904         0.671118
