19
Iteration:   899charge 0 multiplicity 1
 O        -0.018342        -0.024922        -0.044362
 C        -0.980931         0.514528         0.753022
 C        -1.278572         1.973604         1.022796
 C        -2.440910         1.160344         1.726887
 C        -1.387350         0.307102         2.298705
 C        -3.778280         1.619759         2.005172
 C        -4.200937         1.772807         0.504999
 O        -3.344680         1.067873        -0.377924
 C        -2.415420         0.270904         0.526664
 H         0.073225         0.730501        -0.727858
 H        -0.628597         2.482928         1.714404
 H        -1.574988         2.612142         0.094506
 H        -0.651714         0.786911         2.986348
 H        -1.653791        -0.767882         2.643077
 H        -4.389756         0.943117         2.604268
 H        -3.772063         2.537192         2.537145
 H        -5.245202         1.368028         0.411451
 H        -4.240303         2.880666         0.273171
 H        -2.795489        -0.739467         0.298177
