19
Iteration:  2495
 O         0.027373        -0.051718        -0.098564
 C        -0.977397         0.594274         0.653376
 C        -1.314623         2.081305         0.949268
 C        -2.352066         1.212082         1.723766
 C        -1.272630         0.277629         2.246113
 C        -3.683927         1.674427         2.095401
 C        -4.424990         1.689031         0.633976
 O        -3.387071         1.050212        -0.338406
 C        -2.533922         0.297987         0.462943
 H         0.840207        -0.179081         0.426030
 H        -0.650240         2.809587         1.523069
 H        -1.707176         2.521165         0.035508
 H        -0.450066         0.452915         2.987973
 H        -1.728444        -0.786383         2.408850
 H        -4.088889         0.818838         2.669589
 H        -3.728198         2.636753         2.559711
 H        -5.218314         0.938917         0.492758
 H        -4.542726         2.683055         0.196353
 H        -2.738209        -0.830756         0.642609
