19
Iteration:  1476charge 0 multiplicity 1
 O        -0.052367         0.166402        -0.192599
 C        -0.973718         0.510130         0.746599
 C        -1.257068         1.987212         1.159374
 C        -2.471660         1.102290         1.867544
 C        -1.376648         0.087690         2.255574
 C        -3.840410         1.602964         2.013651
 C        -4.047761         1.931852         0.460111
 O        -3.344994         1.030928        -0.346938
 C        -2.524610         0.341283         0.461632
 H        -0.051337        -0.791623        -0.337056
 H        -0.495117         2.374088         1.868512
 H        -1.370663         2.764018         0.413104
 H        -0.561108         0.435386         3.001106
 H        -1.746759        -0.956044         2.560237
 H        -4.465894         0.880017         2.391928
 H        -3.893537         2.568890         2.520323
 H        -5.074932         1.618280         0.178043
 H        -3.902347         2.961265         0.244914
 H        -2.659004        -0.807820         0.350477
