19
Iteration:    97
 O         0.106967         0.050341        -0.039998
 C        -1.018172         0.541858         0.645794
 C        -1.232866         2.035943         1.057837
 C        -2.389934         1.203233         1.744175
 C        -1.284039         0.144784         2.158495
 C        -3.789191         1.911094         1.962846
 C        -4.443579         1.502948         0.484249
 O        -3.295025         1.079389        -0.282521
 C        -2.537147         0.338852         0.611154
 H         0.109029        -0.876729         0.121502
 H        -0.428275         2.260123         1.733479
 H        -1.418082         2.750345         0.307484
 H        -0.594452         0.366703         2.988065
 H        -1.621916        -0.841116         2.258195
 H        -4.415101         1.668980         2.880094
 H        -3.616496         2.957513         2.096566
 H        -5.203340         0.712724         0.403313
 H        -4.793649         2.337368        -0.241237
 H        -3.141164        -0.590225         0.773355
