19
Iteration:   578charge 0 multiplicity 1
 O         0.066412         0.142534        -0.117090
 C        -0.996155         0.497167         0.769563
 C        -1.413172         1.955232         0.998786
 C        -2.480187         1.093260         1.766976
 C        -1.292323         0.194024         2.271959
 C        -3.774104         1.767483         1.986191
 C        -4.141467         1.970491         0.486533
 O        -3.407991         0.916619        -0.346620
 C        -2.493279         0.187684         0.558958
 H         0.827217        -0.252160         0.331651
 H        -0.782117         2.581332         1.614282
 H        -1.814176         2.557530         0.129579
 H        -0.648241         0.517468         3.064939
 H        -1.446475        -0.890574         2.528528
 H        -4.408364         0.955114         2.319108
 H        -3.837674         2.622473         2.661172
 H        -5.182738         1.925506         0.266444
 H        -3.728844         2.855244        -0.025169
 H        -2.907307        -0.846620         0.593097
