19
Iteration:  4278
 O         0.086969         0.027638        -0.047280
 C        -1.056338         0.571178         0.641741
 C        -1.389086         1.996090         1.055881
 C        -2.391254         1.138363         1.833720
 C        -1.263653         0.198329         2.200277
 C        -3.760394         1.779326         2.037183
 C        -4.271773         1.583377         0.507135
 O        -3.318708         1.107940        -0.358421
 C        -2.533352         0.317143         0.442252
 H         0.711214        -0.188442         0.657097
 H        -0.681956         2.667573         1.567401
 H        -1.930833         2.529122         0.319883
 H        -0.535217         0.628397         2.782259
 H        -1.594096        -0.854676         2.270473
 H        -4.427499         1.426806         2.785167
 H        -3.684831         2.872473         2.274281
 H        -5.105653         0.836305         0.471782
 H        -4.602258         2.579489         0.225536
 H        -2.925459        -0.713265         0.648165
