19
Iteration:  2182
 O         0.147617        -0.154644        -0.007862
 C        -0.948492         0.491757         0.624112
 C        -1.293802         2.047125         0.978424
 C        -2.369736         1.294479         1.766226
 C        -1.200916         0.280130         2.131152
 C        -3.870415         1.645018         2.108348
 C        -4.408068         1.725461         0.563408
 O        -3.421273         1.047403        -0.354946
 C        -2.538956         0.330055         0.545710
 H         0.822291         0.516141        -0.242744
 H        -0.464640         2.734771         1.405054
 H        -1.636589         2.621027         0.096086
 H        -0.663064         0.876680         2.843101
 H        -1.263311        -0.729768         2.264488
 H        -4.315402         0.744031         2.627048
 H        -4.058370         2.478924         2.763027
 H        -5.430485         1.418149         0.371338
 H        -4.483586         2.820748         0.390576
 H        -3.040675        -0.585906         0.812843
