19
Iteration:  1549charge 0 multiplicity 1
 O         0.228405         0.066670         0.061776
 C        -0.966248         0.506515         0.688987
 C        -1.277061         2.084949         1.092256
 C        -2.417770         1.046510         1.719950
 C        -1.369130         0.065154         2.107652
 C        -3.692362         1.620505         2.115567
 C        -4.218193         1.914235         0.540549
 O        -3.526057         1.095417        -0.372414
 C        -2.603387         0.343153         0.382819
 H         0.058393        -0.813454        -0.257979
 H        -0.786222         2.636386         1.945090
 H        -1.634593         2.764146         0.333123
 H        -0.709779         0.244806         2.890797
 H        -1.896137        -0.859282         2.214222
 H        -4.583752         0.941776         2.379390
 H        -3.610987         2.542575         2.700096
 H        -5.270202         1.706756         0.534312
 H        -4.008491         2.947120         0.101726
 H        -2.738730        -0.714671         0.491280
