19
Iteration:  4432
 O         0.091907         0.042529        -0.032321
 C        -0.962147         0.569603         0.745333
 C        -1.323108         2.080703         1.004159
 C        -2.398764         1.211420         1.727711
 C        -1.316205         0.207979         2.235269
 C        -3.815511         1.655893         2.049968
 C        -4.174887         1.813401         0.521842
 O        -3.504490         0.818656        -0.330302
 C        -2.471683         0.318649         0.466069
 H         0.550425         0.855854        -0.342603
 H        -0.697783         2.723589         1.621569
 H        -1.757765         2.630461         0.074185
 H        -0.602537         0.607209         2.976472
 H        -1.532180        -0.898310         2.526468
 H        -4.387151         0.794563         2.405830
 H        -3.858219         2.603245         2.628870
 H        -5.296462         1.534568         0.473591
 H        -4.036527         2.765893        -0.056368
 H        -2.713230        -0.740890         0.626993
