19
Iteration:   637
 O         0.140504         0.001186         0.067699
 C        -1.011287         0.503045         0.686682
 C        -1.232161         2.055072         0.942601
 C        -2.414885         1.319912         1.735170
 C        -1.253316         0.140569         2.178877
 C        -3.868427         1.618960         1.914895
 C        -4.349208         1.709435         0.464205
 O        -3.320976         1.113116        -0.272376
 C        -2.553837         0.344761         0.616797
 H        -0.224337        -0.763626        -0.355837
 H        -0.417178         2.643048         1.407832
 H        -1.604195         2.620986         0.124721
 H        -0.413007         0.397962         2.917315
 H        -1.680442        -0.847252         2.258836
 H        -4.267465         0.757773         2.455120
 H        -4.077113         2.448737         2.585011
 H        -5.420534         1.398252         0.391757
 H        -4.322032         2.776882         0.173247
 H        -2.958236        -0.597590         0.985648
