19
Iteration:  2297
 O         0.093596        -0.069294        -0.126955
 C        -0.944812         0.524065         0.658213
 C        -1.237344         2.033122         0.919595
 C        -2.288744         1.281954         1.704694
 C        -1.423079         0.239599         2.296307
 C        -3.737314         1.689356         2.050517
 C        -4.464403         1.523155         0.675749
 O        -3.375094         1.129097        -0.350108
 C        -2.520386         0.431987         0.496836
 H         0.980058        -0.086786         0.257608
 H        -0.656673         2.631821         1.593816
 H        -1.484957         2.665401         0.031704
 H        -0.573526         0.558984         2.931084
 H        -1.820269        -0.847785         2.573240
 H        -4.046155         0.998995         2.822526
 H        -3.956600         2.693231         2.407008
 H        -5.236818         0.858985         0.490796
 H        -4.915568         2.375008         0.226919
 H        -2.869274        -0.522766         0.802429
