19
Iteration:   520
 O         0.058474        -0.032310        -0.050922
 C        -0.951999         0.552474         0.779250
 C        -1.228874         2.075397         1.084258
 C        -2.419894         1.101760         1.690872
 C        -1.356874         0.197975         2.356711
 C        -3.745075         1.663437         1.972069
 C        -4.231544         1.819549         0.512839
 O        -3.524582         0.926391        -0.381189
 C        -2.461655         0.346227         0.419674
 H         0.553492         0.687181        -0.556276
 H        -0.658588         2.565731         1.921298
 H        -1.559286         2.633636         0.208204
 H        -0.705262         0.762538         2.983058
 H        -1.815298        -0.742034         2.506469
 H        -4.499087         1.168218         2.694731
 H        -3.626738         2.671458         2.455267
 H        -5.377613         1.746685         0.331883
 H        -3.897799         2.814910         0.224364
 H        -2.686732        -0.752814         0.490634
