19
Iteration:  1644charge 0 multiplicity 1
 O        -0.036326        -0.004412        -0.120899
 C        -0.980476         0.519741         0.668926
 C        -1.238270         1.969950         1.235343
 C        -2.387953         1.095215         1.823434
 C        -1.316842         0.151360         2.221320
 C        -3.839625         1.713277         1.974102
 C        -4.353267         1.673447         0.555371
 O        -3.227077         1.268256        -0.388951
 C        -2.466656         0.425218         0.411091
 H        -0.172926        -0.919720        -0.371602
 H        -0.464042         2.262213         1.978108
 H        -1.451493         2.739410         0.493901
 H        -0.599039         0.455951         3.025167
 H        -1.747023        -0.935577         2.337209
 H        -4.341975         0.969972         2.557670
 H        -3.742230         2.642244         2.499009
 H        -5.130275         0.889051         0.408780
 H        -4.779124         2.663957         0.207825
 H        -2.832008        -0.595558         0.476792
