19
Iteration:  2595
 O         0.046123        -0.088408        -0.059320
 C        -0.925819         0.546646         0.690219
 C        -1.250220         2.026884         0.995801
 C        -2.361513         1.193499         1.811556
 C        -1.234590         0.226762         2.146878
 C        -3.738874         1.783526         1.978996
 C        -4.431092         1.571518         0.668107
 O        -3.431945         1.068263        -0.372472
 C        -2.556211         0.418437         0.509559
 H         0.812764         0.509237        -0.193807
 H        -0.707358         2.723210         1.642863
 H        -1.646092         2.546230         0.091554
 H        -0.526530         0.590305         2.910424
 H        -1.476952        -0.804545         2.443877
 H        -4.309665         1.269183         2.748258
 H        -3.697580         2.800404         2.297671
 H        -5.171203         0.686055         0.661360
 H        -4.830713         2.444121         0.193384
 H        -2.773760        -0.694782         0.632438
