19
Iteration:   444charge 0 multiplicity 1
 O         0.083743        -0.025615        -0.060825
 C        -0.916775         0.575509         0.766498
 C        -1.259965         2.066105         1.080516
 C        -2.388849         1.147372         1.700965
 C        -1.438168         0.164690         2.309304
 C        -3.737095         1.680271         1.969216
 C        -4.313015         1.705792         0.520804
 O        -3.389068         1.108475        -0.378669
 C        -2.449360         0.343420         0.448775
 H        -0.129771        -0.819590        -0.526054
 H        -0.652969         2.733644         1.779553
 H        -1.493620         2.719866         0.253709
 H        -0.760007         0.734483         2.996300
 H        -1.759398        -0.895046         2.546043
 H        -4.320720         1.096172         2.754009
 H        -3.716147         2.725383         2.336313
 H        -5.309638         1.112900         0.614647
 H        -4.577075         2.740508         0.305178
 H        -2.827014        -0.711642         0.550605
