19
Iteration:  1612charge 0 multiplicity 1
 O        -0.008092         0.076099        -0.114293
 C        -1.005545         0.466310         0.702092
 C        -1.323187         1.980655         1.136407
 C        -2.362803         1.111283         1.841898
 C        -1.334040         0.043747         2.239834
 C        -3.782342         1.722452         1.988632
 C        -4.360634         1.713432         0.551102
 O        -3.186629         1.257803        -0.385364
 C        -2.485498         0.385493         0.453323
 H         0.150320        -0.864071        -0.263918
 H        -0.576447         2.585895         1.691869
 H        -1.665087         2.619650         0.333667
 H        -0.557634         0.185318         2.979344
 H        -1.902775        -0.932489         2.333887
 H        -4.412580         1.092089         2.627590
 H        -3.685437         2.698217         2.458032
 H        -5.241861         1.020111         0.463876
 H        -4.585529         2.758372         0.154209
 H        -3.027768        -0.615661         0.390061
