19
Iteration:  3499
 O         0.156587        -0.073896         0.011600
 C        -0.970489         0.563999         0.587194
 C        -1.228597         2.016163         0.960223
 C        -2.360868         1.216626         1.758531
 C        -1.252265         0.240475         2.304044
 C        -3.808506         1.713067         2.012894
 C        -4.505680         1.563728         0.637909
 O        -3.406036         1.142759        -0.359995
 C        -2.491902         0.334105         0.478067
 H         0.361953         0.197978        -0.909267
 H        -0.507432         2.624539         1.601711
 H        -1.782522         2.671596         0.240012
 H        -0.331131         0.700853         2.673786
 H        -1.367120        -0.831866         2.544378
 H        -4.314107         1.103557         2.788531
 H        -3.822898         2.763658         2.421008
 H        -5.409584         0.948161         0.543713
 H        -4.965948         2.532711         0.225753
 H        -2.923197        -0.635322         0.716415
