19
Iteration:  1448
 O         0.138837         0.093805        -0.037339
 C        -0.967013         0.482581         0.698657
 C        -1.258402         1.959873         1.236632
 C        -2.415747         1.095517         1.825483
 C        -1.257067        -0.005804         2.131746
 C        -3.822049         1.748804         1.904599
 C        -4.242179         1.933871         0.511853
 O        -3.421312         1.053667        -0.381961
 C        -2.595816         0.353751         0.506821
 H        -0.095790        -0.355185        -0.896222
 H        -0.551199         2.422579         1.942383
 H        -1.613089         2.862283         0.604105
 H        -0.518001         0.370189         2.826288
 H        -1.550250        -0.954636         2.498266
 H        -4.612398         1.020683         2.427240
 H        -3.930414         2.686100         2.500599
 H        -5.237053         1.445201         0.449646
 H        -4.339357         2.971652         0.061674
 H        -2.805561        -0.692605         0.640910
