19
Iteration:  2373
 O        -0.082573         0.065377        -0.178100
 C        -1.040180         0.535948         0.675035
 C        -1.234967         1.993008         0.970613
 C        -2.383551         1.171012         1.784926
 C        -1.237034         0.206438         2.315395
 C        -3.771163         1.723275         2.050217
 C        -4.359477         1.697895         0.541604
 O        -3.329723         0.974279        -0.345641
 C        -2.464601         0.322538         0.602068
 H         0.717222         0.644262        -0.189137
 H        -0.540055         2.597752         1.595273
 H        -1.600489         2.496032         0.025939
 H        -0.587553         0.637454         3.059969
 H        -1.687484        -0.812542         2.439349
 H        -4.368701         1.141091         2.725599
 H        -3.608503         2.718973         2.424514
 H        -5.310503         1.160777         0.308775
 H        -4.378790         2.663929         0.020143
 H        -2.629503        -0.731482         0.823871
