19
Iteration:  2351charge 0 multiplicity 1
 O         0.043231        -0.131400        -0.123894
 C        -0.929920         0.503158         0.732121
 C        -1.383721         2.122335         1.036812
 C        -2.347558         1.201036         1.747972
 C        -1.242331         0.299898         2.208424
 C        -3.744178         1.711228         2.056487
 C        -4.369962         1.629740         0.577854
 O        -3.397337         1.129588        -0.315938
 C        -2.520431         0.274700         0.492190
 H         0.841839         0.359901        -0.305889
 H        -0.548046         2.574134         1.592610
 H        -1.856025         2.682117         0.172592
 H        -0.553645         0.805604         2.876544
 H        -1.644767        -0.763868         2.384600
 H        -4.209003         1.030072         2.737417
 H        -3.800909         2.730752         2.410683
 H        -5.168417         0.848983         0.439955
 H        -4.631801         2.584880         0.130761
 H        -2.785704        -0.774143         0.511688
