19
Iteration:  1499charge 0 multiplicity 1
 O         0.018480         0.173338        -0.216994
 C        -0.963412         0.501539         0.688404
 C        -1.367745         1.936042         1.092342
 C        -2.424650         1.101019         1.773686
 C        -1.373405         0.122127         2.394250
 C        -3.813256         1.541059         1.986698
 C        -4.151968         2.051113         0.532194
 O        -3.277836         1.099934        -0.374629
 C        -2.590397         0.219123         0.509721
 H         0.193111        -0.801379        -0.044869
 H        -0.610738         2.440838         1.681691
 H        -1.552231         2.611767         0.238246
 H        -0.650183         0.432703         3.257420
 H        -1.590253        -0.984918         2.427558
 H        -4.306496         0.681882         2.277855
 H        -3.858343         2.354129         2.736025
 H        -5.164866         2.045770         0.029751
 H        -3.684829         3.015827         0.467266
 H        -2.887163        -0.866506         0.794764
