19
Iteration:  2925
 O         0.090325        -0.059567        -0.000653
 C        -1.032723         0.542422         0.693168
 C        -1.205426         2.096093         0.859587
 C        -2.397924         1.262991         1.770267
 C        -1.273059         0.324528         2.175528
 C        -3.809053         1.485999         2.049356
 C        -4.279465         1.758536         0.605828
 O        -3.419664         1.051705        -0.303851
 C        -2.535019         0.281281         0.541816
 H         0.081912         0.307612        -0.895809
 H        -0.366417         2.474621         1.496034
 H        -1.533496         2.630291        -0.022633
 H        -0.437411         0.614844         2.882586
 H        -1.651485        -0.601431         2.532336
 H        -4.299547         0.687146         2.588299
 H        -3.987309         2.380759         2.697440
 H        -5.325125         1.494731         0.545865
 H        -4.284559         2.777588         0.221849
 H        -3.010891        -0.707952         0.619498
