19
Iteration:   248
 O         0.123455         0.220084        -0.080058
 C        -0.995556         0.409863         0.706193
 C        -1.292564         1.851856         1.129805
 C        -2.430684         1.120437         1.772231
 C        -1.201642         0.171366         2.209836
 C        -3.859440         1.801398         1.907012
 C        -4.227958         1.955071         0.389983
 O        -3.482318         0.935380        -0.286037
 C        -2.536851         0.244649         0.651950
 H         0.473770        -0.650873        -0.120677
 H        -0.589867         2.456496         1.802961
 H        -1.567399         2.335718         0.171040
 H        -0.423924         0.790119         2.789771
 H        -1.572654        -0.838605         2.563716
 H        -4.444003         0.922951         2.298748
 H        -4.022076         2.747628         2.359470
 H        -5.292857         1.913488         0.198055
 H        -3.857049         2.928459        -0.004629
 H        -2.906309        -0.789736         0.733165
