19
Iteration:  4961
 O         0.224897         0.075228         0.078323
 C        -0.905750         0.616097         0.691276
 C        -1.286518         2.015741         1.036871
 C        -2.403571         1.084736         1.756875
 C        -1.241341         0.154445         2.206312
 C        -3.729333         1.712559         1.977802
 C        -4.414803         1.757138         0.534609
 O        -3.486069         0.998168        -0.363158
 C        -2.630411         0.297419         0.444405
 H         0.536140         0.690016        -0.642367
 H        -0.622097         2.523754         1.765335
 H        -1.788521         2.515480         0.104122
 H        -0.529973         0.331804         3.029724
 H        -1.607617        -0.882212         2.347705
 H        -4.396454         1.086939         2.608295
 H        -3.686185         2.681562         2.544475
 H        -5.333435         1.185635         0.500560
 H        -4.629945         2.774812         0.052032
 H        -2.896216        -0.784386         0.608171
