19
Iteration:  1794
 O         0.003224         0.050671        -0.280989
 C        -1.016829         0.525998         0.726941
 C        -1.316007         2.017671         1.217824
 C        -2.491018         1.026999         1.833042
 C        -1.293913         0.109367         2.232579
 C        -3.837895         1.647018         1.991132
 C        -4.123975         1.935809         0.473493
 O        -3.345368         1.011092        -0.364054
 C        -2.508430         0.339307         0.556175
 H         0.848435         0.077447         0.176378
 H        -0.640559         2.558775         1.934953
 H        -1.588951         2.642122         0.370164
 H        -0.667064         0.618980         2.917974
 H        -1.453029        -0.898509         2.528507
 H        -4.639955         1.039244         2.430279
 H        -3.980933         2.632071         2.556430
 H        -5.206521         1.886109         0.268366
 H        -3.803910         2.950967         0.319160
 H        -2.818447        -0.770561         0.569273
