19
Iteration:  4354
 O         0.083911         0.003066         0.019667
 C        -0.936394         0.571014         0.740283
 C        -1.277841         2.081623         1.044687
 C        -2.368219         1.218622         1.732127
 C        -1.346285         0.203899         2.163999
 C        -3.777556         1.731721         1.986801
 C        -4.345806         1.519846         0.571510
 O        -3.375460         1.103615        -0.346513
 C        -2.479079         0.375538         0.486560
 H        -0.129451        -0.658981        -0.687229
 H        -0.505552         2.650163         1.624562
 H        -1.544395         2.661705         0.165886
 H        -0.709036         0.712454         2.881157
 H        -1.540922        -0.915782         2.418290
 H        -4.318653         1.045266         2.620104
 H        -3.842279         2.774125         2.431849
 H        -5.243290         0.823269         0.569333
 H        -4.821104         2.420197         0.055964
 H        -2.777252        -0.681493         0.577743
