19
Iteration:  2223
 O        -0.033652         0.034857        -0.230622
 C        -1.023337         0.550192         0.726392
 C        -1.264563         1.986503         1.070161
 C        -2.399531         1.192310         1.740064
 C        -1.355809         0.229413         2.293763
 C        -3.675860         1.849383         2.065788
 C        -4.339009         1.595963         0.519589
 O        -3.288914         0.992679        -0.348971
 C        -2.515997         0.269393         0.568794
 H         0.636887         0.759803        -0.334041
 H        -0.511212         2.483413         1.679351
 H        -1.631418         2.564507         0.199511
 H        -0.689910         0.685681         3.017165
 H        -1.612171        -0.810439         2.655916
 H        -4.163462         1.244833         2.920544
 H        -3.699563         2.908820         2.332029
 H        -5.326442         0.969448         0.502238
 H        -4.614594         2.484716        -0.043318
 H        -2.816201        -0.856739         0.658889
