19
Iteration:  3989
 O         0.136055         0.027504         0.136422
 C        -0.938034         0.568124         0.717920
 C        -1.296870         2.008999         0.887054
 C        -2.408420         1.077813         1.710620
 C        -1.196434         0.189900         2.200600
 C        -3.730144         1.683506         2.039358
 C        -4.420795         1.735400         0.591767
 O        -3.438563         1.119773        -0.345618
 C        -2.606080         0.290932         0.441159
 H         0.423832         0.273337        -0.735952
 H        -0.515096         2.581089         1.375458
 H        -1.633376         2.472776        -0.067290
 H        -0.482743         0.597060         2.933127
 H        -1.363087        -0.800951         2.537959
 H        -4.306788         1.023783         2.706723
 H        -3.576654         2.647458         2.498302
 H        -5.382539         1.123717         0.500089
 H        -4.671973         2.812883         0.248804
 H        -2.967901        -0.785937         0.431274
