19
Iteration:   283
 O        -0.002948         0.123300         0.003656
 C        -1.008722         0.544943         0.731048
 C        -1.372577         1.995014         0.981222
 C        -2.436267         1.066425         1.797314
 C        -1.334978         0.221976         2.258066
 C        -3.679616         1.716916         2.013948
 C        -4.192824         1.833923         0.450662
 O        -3.336077         1.008065        -0.386228
 C        -2.490434         0.238380         0.498267
 H        -0.222974        -0.791609        -0.079841
 H        -0.811066         2.669497         1.612543
 H        -1.791236         2.471839         0.139322
 H        -0.706521         0.603455         3.030271
 H        -1.521156        -0.817228         2.532927
 H        -4.327170         1.112190         2.652414
 H        -3.550872         2.618513         2.575370
 H        -5.227479         1.531575         0.349969
 H        -4.060042         2.896535         0.069931
 H        -2.647627        -0.846556         0.604976
