19
Iteration:  4662
 O         0.111026         0.022361        -0.079376
 C        -0.962103         0.553713         0.671997
 C        -1.309056         2.000637         1.079851
 C        -2.419306         1.072199         1.774212
 C        -1.283126         0.274394         2.357639
 C        -3.761545         1.701036         1.940745
 C        -4.389582         1.547579         0.511697
 O        -3.335878         1.157385        -0.348769
 C        -2.504880         0.309976         0.511616
 H         0.069402         0.492864        -0.960622
 H        -0.527270         2.393709         1.750918
 H        -1.682225         2.753494         0.338527
 H        -0.661592         0.885613         3.059925
 H        -1.522272        -0.727310         2.578277
 H        -4.486822         1.429418         2.720222
 H        -3.537692         2.760800         2.116262
 H        -5.214438         0.836409         0.578516
 H        -4.838570         2.454479         0.125201
 H        -2.916407        -0.715968         0.507142
