19
Iteration:  1787
 O        -0.076773         0.074471        -0.234559
 C        -1.004372         0.552002         0.731267
 C        -1.308488         1.984116         1.185677
 C        -2.449322         1.064480         1.869810
 C        -1.340296         0.162438         2.281892
 C        -3.802059         1.591972         1.953233
 C        -4.081538         1.900677         0.471184
 O        -3.395392         1.060634        -0.368803
 C        -2.476619         0.270445         0.523975
 H         0.831906         0.227514        -0.001921
 H        -0.536946         2.354625         1.911963
 H        -1.540899         2.666946         0.373958
 H        -0.651567         0.674557         2.994794
 H        -1.556885        -0.987680         2.466768
 H        -4.497786         0.889766         2.413016
 H        -3.812530         2.559308         2.422635
 H        -5.126457         1.920504         0.190585
 H        -3.728157         2.964209         0.391295
 H        -2.761711        -0.791216         0.415371
