19
Iteration:   535charge 0 multiplicity 1
 O         0.088672         0.046582        -0.061558
 C        -0.940557         0.560188         0.687904
 C        -1.277311         1.940924         1.162648
 C        -2.398319         1.182747         1.762459
 C        -1.338384         0.200742         2.215889
 C        -3.782570         1.776446         1.948384
 C        -4.190853         1.895394         0.437058
 O        -3.526914         0.865550        -0.321770
 C        -2.562518         0.216048         0.502265
 H         0.789065         0.768410        -0.038519
 H        -0.547696         2.358855         1.834327
 H        -1.431683         2.807497         0.438704
 H        -0.661768         0.530832         3.040934
 H        -1.499888        -0.935372         2.443498
 H        -4.366943         1.010293         2.384023
 H        -3.838586         2.755974         2.418585
 H        -5.219651         1.675659         0.405097
 H        -4.041820         2.974742         0.074318
 H        -2.769060        -0.864646         0.664793
