19
Iteration:  1608
 O         0.021501         0.099193        -0.104830
 C        -1.020944         0.444683         0.688352
 C        -1.315861         1.925804         1.130798
 C        -2.365688         1.143438         1.835827
 C        -1.324536         0.048876         2.227839
 C        -3.759895         1.713859         1.974160
 C        -4.353627         1.722158         0.563444
 O        -3.201715         1.243537        -0.385200
 C        -2.518968         0.413995         0.459867
 H         0.102770        -0.867328        -0.222044
 H        -0.559375         2.400005         1.750648
 H        -1.730773         2.661986         0.380879
 H        -0.577807         0.235598         3.078682
 H        -1.817342        -0.954720         2.361170
 H        -4.450704         1.115119         2.544946
 H        -3.831767         2.714944         2.465931
 H        -5.253499         1.095339         0.510334
 H        -4.571823         2.660810         0.157318
 H        -2.979577        -0.528622         0.381199
