19
Iteration:  4993charge 0 multiplicity 1
 O         0.134320         0.078030        -0.022184
 C        -1.051668         0.605850         0.711796
 C        -1.386647         2.021023         1.006397
 C        -2.413795         1.141764         1.763105
 C        -1.228605         0.241899         2.245854
 C        -3.877822         1.618727         2.014881
 C        -4.232111         1.761736         0.582927
 O        -3.264814         1.021078        -0.357912
 C        -2.563669         0.222050         0.475802
 H        -0.034821         0.034375        -0.966127
 H        -0.673477         2.561834         1.704435
 H        -1.759004         2.691880         0.108098
 H        -0.489010         0.635530         2.929247
 H        -1.688920        -0.702158         2.334206
 H        -4.454737         0.818862         2.528776
 H        -3.937063         2.590885         2.568664
 H        -5.228708         1.358440         0.461172
 H        -4.121869         2.844653         0.313247
 H        -2.941895        -0.820085         0.629924
