19
Iteration:  3080charge 0 multiplicity 1
 O         0.049321        -0.137985        -0.139413
 C        -0.964202         0.504628         0.681781
 C        -1.305142         2.060972         0.917724
 C        -2.436730         1.208489         1.758214
 C        -1.173554         0.324457         2.267602
 C        -3.917859         1.534570         2.070412
 C        -4.274538         1.741980         0.607443
 O        -3.356862         1.140217        -0.350444
 C        -2.515878         0.342092         0.554630
 H         0.882557         0.380259        -0.036125
 H        -0.481161         2.640647         1.464180
 H        -1.601455         2.552256        -0.061675
 H        -0.723509         1.079185         2.987287
 H        -1.458473        -0.773512         2.632174
 H        -4.316899         0.545340         2.474049
 H        -4.217240         2.397265         2.793200
 H        -5.323411         1.353189         0.344987
 H        -4.237749         2.850278         0.485202
 H        -3.024821        -0.713887         0.590900
