19
Iteration:  4535
 O        -0.066225         0.063050        -0.212091
 C        -0.980911         0.572822         0.757514
 C        -1.218023         2.110041         1.124086
 C        -2.326717         1.141718         1.819015
 C        -1.194853         0.220068         2.356679
 C        -3.849817         1.640258         1.872879
 C        -4.399980         1.668501         0.467417
 O        -3.350632         0.930339        -0.387793
 C        -2.486474         0.365949         0.553712
 H         0.773688         0.362855         0.127081
 H        -0.389619         2.616373         1.750513
 H        -1.559583         2.692606         0.325997
 H        -0.495033         0.741084         3.086521
 H        -1.471921        -0.737533         2.723226
 H        -4.407288         1.031880         2.612150
 H        -3.894523         2.600064         2.409535
 H        -5.338883         1.006111         0.367374
 H        -4.575470         2.687409        -0.004406
 H        -2.970855        -0.575297         0.908588
