19
Iteration:  2370
 O        -0.071893         0.037913        -0.172420
 C        -1.020783         0.570628         0.672894
 C        -1.241545         1.987903         0.956665
 C        -2.400826         1.171359         1.772330
 C        -1.245914         0.198794         2.317612
 C        -3.774691         1.729608         2.030181
 C        -4.335757         1.681461         0.573650
 O        -3.323244         0.988683        -0.328813
 C        -2.466604         0.321675         0.579239
 H         0.700588         0.603055        -0.222455
 H        -0.651650         2.664430         1.612305
 H        -1.574610         2.557183         0.026293
 H        -0.601683         0.562043         3.090685
 H        -1.582246        -0.757769         2.452332
 H        -4.400463         1.114411         2.658570
 H        -3.676157         2.762146         2.481237
 H        -5.342712         1.207135         0.390972
 H        -4.523499         2.659278         0.008977
 H        -2.672157        -0.783186         0.822397
