19
Iteration:   611
 O         0.034132        -0.024625        -0.071254
 C        -0.954134         0.518622         0.716278
 C        -1.278879         2.024115         1.001327
 C        -2.426032         1.149619         1.796996
 C        -1.261308         0.341496         2.363526
 C        -3.851208         1.607277         1.987173
 C        -4.256020         1.793655         0.494591
 O        -3.403141         1.053432        -0.412914
 C        -2.483574         0.310476         0.456805
 H         0.131484        -0.853637         0.353085
 H        -0.526818         2.471570         1.645920
 H        -1.662835         2.743576         0.232079
 H        -0.608502         0.912135         2.991913
 H        -1.416255        -0.742466         2.527286
 H        -4.280481         0.679186         2.335622
 H        -4.145411         2.446581         2.636511
 H        -5.296434         1.802393         0.371670
 H        -3.905383         2.856759         0.394008
 H        -2.730358        -0.761421         0.585647
