19
Iteration:   769
 O        -0.037065        -0.143306        -0.048856
 C        -0.962489         0.528878         0.731746
 C        -1.393509         2.123594         1.009161
 C        -2.413636         1.188312         1.788939
 C        -1.263669         0.262127         2.237486
 C        -3.802908         1.666444         2.032960
 C        -4.358901         1.695474         0.473798
 O        -3.235081         1.145025        -0.401021
 C        -2.419089         0.303461         0.488885
 H         0.808339        -0.166281         0.406278
 H        -0.783706         2.559408         1.773318
 H        -1.783985         2.736381         0.136027
 H        -0.534908         0.839297         2.873807
 H        -1.512255        -0.812368         2.520402
 H        -4.323625         0.862267         2.581126
 H        -3.809365         2.648875         2.490527
 H        -5.196697         1.051515         0.630715
 H        -4.701288         2.682108         0.176392
 H        -2.913160        -0.690981         0.581000
