19
Iteration:  2382
 O        -0.090294         0.125788        -0.225633
 C        -0.991492         0.474619         0.746510
 C        -1.249697         2.006938         1.039945
 C        -2.315699         1.207497         1.849643
 C        -1.260361         0.232897         2.271827
 C        -3.753405         1.707913         2.066426
 C        -4.341068         1.719987         0.428767
 O        -3.359064         0.920407        -0.356315
 C        -2.540267         0.264110         0.587444
 H         0.662627         0.741276        -0.008863
 H        -0.267553         2.346726         1.447924
 H        -1.665184         2.595856         0.138818
 H        -0.488669         0.623518         2.876748
 H        -1.548824        -0.690660         2.657502
 H        -4.269214         1.208088         2.849201
 H        -3.727707         2.796625         2.338926
 H        -5.344334         1.195592         0.349994
 H        -4.216383         2.811347         0.195603
 H        -3.005377        -0.785128         0.708191
