19
Iteration:  2145charge 0 multiplicity 1
 O         0.039578        -0.026658         0.057009
 C        -0.962758         0.576125         0.740180
 C        -1.338827         1.999761         0.920540
 C        -2.379352         1.134149         1.695289
 C        -1.225763         0.302041         2.213569
 C        -3.722313         1.621815         2.092126
 C        -4.265739         1.866603         0.615805
 O        -3.489604         0.956760        -0.388458
 C        -2.469324         0.299530         0.426446
 H         0.172516         0.452146        -0.814966
 H        -0.685076         2.516682         1.554680
 H        -2.011560         2.497419         0.192669
 H        -0.772795         0.860057         2.985958
 H        -1.267353        -0.796224         2.432413
 H        -4.340206         0.822060         2.594786
 H        -3.769671         2.606162         2.650973
 H        -5.312720         1.442131         0.489136
 H        -4.066458         2.838600         0.221569
 H        -2.854283        -0.770145         0.685798
