19
Iteration:  3878charge 0 multiplicity 1
 O         0.117660         0.321043        -0.052982
 C        -1.021604         0.443274         0.747751
 C        -1.421566         1.956776         0.953909
 C        -2.393291         1.082105         1.712820
 C        -1.260403         0.189615         2.250949
 C        -3.690594         1.743237         2.046770
 C        -4.224330         1.911298         0.542085
 O        -3.430886         0.876763        -0.331810
 C        -2.559919         0.183370         0.522649
 H         0.176236        -0.559578        -0.515441
 H        -0.759686         2.674151         1.534151
 H        -1.810462         2.423059         0.071791
 H        -0.501025         0.616773         2.846002
 H        -1.623134        -0.840860         2.549844
 H        -4.312441         1.044853         2.588856
 H        -3.550907         2.663324         2.660950
 H        -5.252683         1.542634         0.315539
 H        -3.858145         2.875730         0.224307
 H        -3.112674        -0.760748         0.694137
