19
Iteration:  2066
 O        -0.012257         0.026232        -0.225549
 C        -1.033778         0.608638         0.633546
 C        -1.357796         2.010482         1.084509
 C        -2.437674         1.074850         1.805680
 C        -1.285881         0.297313         2.274223
 C        -3.739638         1.683451         2.013229
 C        -4.174472         1.876394         0.570452
 O        -3.410078         0.882699        -0.351621
 C        -2.465341         0.285196         0.539628
 H         0.732797        -0.254413         0.369611
 H        -0.718236         2.485482         1.809389
 H        -1.598833         2.721928         0.361281
 H        -0.600189         0.850455         2.955267
 H        -1.567849        -0.728623         2.613054
 H        -4.483792         1.040768         2.425715
 H        -3.675245         2.605237         2.639455
 H        -5.210852         1.661348         0.377705
 H        -4.031597         2.840329         0.111270
 H        -2.638267        -0.850121         0.641170
