19
Iteration:  3161charge 0 multiplicity 1
 O         0.028376         0.128835        -0.154920
 C        -0.929671         0.520600         0.746434
 C        -1.216650         1.945519         1.028322
 C        -2.423648         1.088834         1.781323
 C        -1.239248         0.177977         2.258624
 C        -3.778885         1.910095         1.957165
 C        -4.378253         1.626669         0.550124
 O        -3.408152         1.020376        -0.323198
 C        -2.573533         0.279821         0.507230
 H         0.933271         0.101173         0.175569
 H        -0.668616         2.477795         1.786699
 H        -1.556450         2.646029         0.282561
 H        -0.465387         0.514319         2.942531
 H        -1.340447        -0.933338         2.340067
 H        -4.497733         1.584727         2.691986
 H        -3.422509         2.888960         2.168678
 H        -5.221761         0.868274         0.791131
 H        -4.787189         2.627572         0.187680
 H        -2.900858        -0.799538         0.461585
