19
Iteration:  3271
 O        -0.025608         0.116479        -0.195059
 C        -0.994472         0.526537         0.707835
 C        -1.323371         2.014274         0.964109
 C        -2.397346         1.268175         1.828284
 C        -1.235779         0.179535         2.311824
 C        -3.819396         1.688439         1.969813
 C        -4.238720         1.698863         0.590081
 O        -3.380571         0.993018        -0.355300
 C        -2.505958         0.203645         0.595730
 H         0.864319         0.412583         0.112191
 H        -0.500155         2.578517         1.390655
 H        -1.455570         2.396834        -0.067130
 H        -0.489574         0.499775         3.120155
 H        -1.690317        -0.881135         2.513655
 H        -4.455500         1.309583         2.751267
 H        -3.689249         2.734128         2.300736
 H        -5.245180         1.336365         0.408133
 H        -4.333385         2.770716         0.096207
 H        -2.810032        -0.907922         0.699452
