19
Iteration:  4443
 O         0.123015         0.064748        -0.011610
 C        -0.909257         0.593495         0.698565
 C        -1.341478         2.078575         0.965779
 C        -2.398557         1.133070         1.729812
 C        -1.317008         0.307688         2.268907
 C        -3.752993         1.588082         2.028989
 C        -4.220842         1.802126         0.473156
 O        -3.541170         0.886727        -0.290687
 C        -2.530881         0.206041         0.480500
 H         0.827891         0.662649        -0.379479
 H        -0.758406         2.574201         1.720824
 H        -1.473446         2.748343        -0.003866
 H        -0.580501         0.589827         3.048094
 H        -1.888325        -0.710503         2.401451
 H        -4.442645         0.978155         2.638042
 H        -3.874446         2.561106         2.563311
 H        -5.371534         1.819133         0.238864
 H        -3.819265         2.854630         0.438554
 H        -2.758517        -0.864194         0.558548
