19
Iteration:  2034
 O         0.083783        -0.010839         0.041777
 C        -1.019574         0.481789         0.678586
 C        -1.312111         1.917386         0.849569
 C        -2.369597         1.258248         1.766458
 C        -1.159008         0.193591         2.175466
 C        -3.851650         1.565566         2.011477
 C        -4.308858         1.832608         0.574388
 O        -3.436419         1.086458        -0.298420
 C        -2.527801         0.351845         0.541092
 H         0.373272         0.841937        -0.294390
 H        -0.532290         2.381313         1.439151
 H        -1.599895         2.468683        -0.007589
 H        -0.361602         0.484642         2.831824
 H        -1.637949        -0.739560         2.452316
 H        -4.299125         0.703944         2.484785
 H        -4.001309         2.516531         2.628030
 H        -5.372211         1.714013         0.256654
 H        -4.004159         2.874516         0.518046
 H        -2.819445        -0.715776         0.770834
