19
Iteration:  4972
 O         0.202337         0.087034         0.072224
 C        -0.999819         0.551884         0.761314
 C        -1.388373         2.010815         0.970246
 C        -2.383718         1.134147         1.784981
 C        -1.278750         0.091638         2.178810
 C        -3.748958         1.668616         2.074845
 C        -4.374448         1.738359         0.431352
 O        -3.430407         1.038769        -0.362423
 C        -2.478643         0.333999         0.520342
 H         0.192111         0.562040        -0.789136
 H        -0.762398         2.822864         1.427493
 H        -1.878855         2.552368         0.039267
 H        -0.474659         0.525794         2.744480
 H        -1.514838        -0.985788         2.206715
 H        -4.353511         0.984692         2.703051
 H        -3.608662         2.691185         2.525319
 H        -5.355854         1.330402         0.577566
 H        -4.394699         2.827891         0.076931
 H        -2.840055        -0.724903         0.612837
