19
Iteration:  3355charge 0 multiplicity 1
 O         0.147803         0.024080        -0.019216
 C        -1.004344         0.446363         0.679459
 C        -1.308334         1.992651         0.923557
 C        -2.370832         1.137966         1.724664
 C        -1.186999         0.353520         2.250863
 C        -3.807697         1.548922         2.033220
 C        -4.254290         1.849735         0.592988
 O        -3.483802         0.968826        -0.324034
 C        -2.600881         0.319874         0.520698
 H         0.268320         0.650535        -0.747527
 H        -0.582571         2.527523         1.567264
 H        -1.736016         2.605855         0.070776
 H        -0.663904         1.032565         2.837257
 H        -1.410948        -0.635119         2.689703
 H        -4.400530         0.643937         2.326042
 H        -4.001281         2.379242         2.723873
 H        -5.361666         1.881876         0.403965
 H        -3.864906         2.870568         0.279843
 H        -2.946660        -0.685752         0.773027
