19
Iteration:   750
 O         0.004591        -0.166470        -0.099835
 C        -0.930631         0.591392         0.730151
 C        -1.187804         2.037722         1.073495
 C        -2.422771         1.170171         1.667374
 C        -1.369880         0.315650         2.422806
 C        -3.792952         1.704246         1.994835
 C        -4.344067         1.566546         0.588272
 O        -3.356671         1.152234        -0.388860
 C        -2.465682         0.389309         0.392908
 H         0.981081         0.038582         0.010037
 H        -0.664745         2.609213         1.842309
 H        -1.700622         2.558970         0.198419
 H        -0.929048         0.862497         3.205720
 H        -1.735761        -0.726666         2.572224
 H        -4.367341         1.025809         2.717456
 H        -3.696173         2.811401         2.154475
 H        -5.232932         0.857066         0.490372
 H        -4.680500         2.517530         0.130940
 H        -2.652332        -0.671278         0.190378
