19
Iteration:  1578
 O         0.181257         0.143911        -0.009550
 C        -0.951396         0.419886         0.703942
 C        -1.092865         1.967187         1.115976
 C        -2.401918         1.106002         1.720481
 C        -1.345810         0.061638         2.190675
 C        -3.799780         1.685409         2.030662
 C        -4.470078         1.894444         0.605232
 O        -3.421881         1.111508        -0.388215
 C        -2.560276         0.360829         0.390891
 H         0.205917        -0.789717        -0.395886
 H        -0.477659         2.232995         1.969679
 H        -1.318105         2.695180         0.280732
 H        -0.617183         0.201208         3.041058
 H        -1.973959        -0.889949         2.347452
 H        -4.520159         1.132382         2.576835
 H        -3.650975         2.650873         2.532907
 H        -5.553643         1.583607         0.470788
 H        -4.360308         2.903365         0.159874
 H        -2.890529        -0.784965         0.419901
