19
Iteration:  4863charge 0 multiplicity 1
 O         0.002235         0.018802        -0.076468
 C        -0.936121         0.549335         0.800729
 C        -1.380302         2.063564         1.110956
 C        -2.373684         1.109568         1.714893
 C        -1.183506         0.296966         2.301800
 C        -3.806593         1.606752         1.957400
 C        -4.347472         1.670991         0.462886
 O        -3.260927         1.132926        -0.350930
 C        -2.510361         0.290517         0.496160
 H        -0.483298        -0.215077        -0.896561
 H        -0.855409         2.644157         1.845858
 H        -1.609037         2.602474         0.155346
 H        -0.521461         0.627291         3.082595
 H        -1.315727        -0.735435         2.676691
 H        -4.485082         0.912436         2.498252
 H        -3.804019         2.596694         2.489608
 H        -5.272729         1.093648         0.446607
 H        -4.612882         2.710801         0.044921
 H        -2.912081        -0.755896         0.494120
