19
Iteration:  1331charge 0 multiplicity 1
 O        -0.106595         0.067778        -0.236116
 C        -0.987666         0.504987         0.734642
 C        -1.179743         1.993865         1.180295
 C        -2.384855         1.153218         1.795999
 C        -1.366199         0.144987         2.292025
 C        -3.822188         1.805090         2.009101
 C        -4.269950         1.599315         0.509947
 O        -3.221370         1.149061        -0.392461
 C        -2.510450         0.328681         0.504812
 H         0.658850        -0.456118         0.147636
 H        -0.599539         2.462806         1.955111
 H        -1.477716         2.789342         0.457018
 H        -0.596005         0.342290         3.024320
 H        -1.662461        -0.940722         2.366115
 H        -4.570495         1.306519         2.538254
 H        -3.928792         2.816156         2.346372
 H        -5.153915         0.944101         0.377911
 H        -4.616656         2.590598         0.113370
 H        -3.027865        -0.721643         0.536012
