19
Iteration:  1942charge 0 multiplicity 1
 O        -0.069345         0.162300        -0.250685
 C        -1.012022         0.421641         0.748386
 C        -1.167926         1.919747         1.042835
 C        -2.360074         1.169958         1.764412
 C        -1.350691         0.105487         2.397393
 C        -3.801462         1.771059         1.995573
 C        -4.331039         1.645204         0.549545
 O        -3.293134         1.173820        -0.352684
 C        -2.486057         0.337496         0.483781
 H         0.747634        -0.202971         0.174171
 H        -0.353464         2.318984         1.624853
 H        -1.574719         2.442574         0.140291
 H        -0.628811         0.662209         3.143322
 H        -1.901032        -0.837818         2.730868
 H        -4.323140         1.176309         2.761876
 H        -3.772055         2.786614         2.290362
 H        -5.186113         0.994381         0.646999
 H        -4.631183         2.534548        -0.028594
 H        -2.944208        -0.733659         0.512843
