19
Iteration:  3728
 O         0.143815         0.066024        -0.099112
 C        -0.970270         0.569113         0.628701
 C        -1.245696         2.058479         1.138536
 C        -2.330477         1.146295         1.841826
 C        -1.346556         0.071765         2.187005
 C        -3.661864         1.936404         1.994701
 C        -4.461485         1.564956         0.482300
 O        -3.443042         0.952474        -0.322265
 C        -2.549247         0.320610         0.568066
 H         0.650452         0.863309        -0.413804
 H        -0.547113         2.519640         1.915576
 H        -1.680241         2.675812         0.376152
 H        -0.437890         0.332917         2.785682
 H        -1.879069        -0.982170         2.267532
 H        -4.469265         1.558337         2.662446
 H        -3.475412         3.021228         2.159711
 H        -5.400114         1.028292         0.645873
 H        -4.903563         2.416793        -0.121109
 H        -2.757758        -0.790719         0.507755
