19
Iteration:  1438charge 0 multiplicity 1
 O         0.224444         0.050298        -0.014487
 C        -1.042390         0.520343         0.703770
 C        -1.305974         1.963835         1.196640
 C        -2.422745         1.126222         1.807683
 C        -1.318702         0.037763         2.180917
 C        -3.773905         1.749624         2.027958
 C        -4.277044         1.857014         0.460009
 O        -3.430109         1.096708        -0.342998
 C        -2.558346         0.330443         0.435745
 H        -0.101705        -0.033906        -0.966528
 H        -0.495489         2.197884         1.887953
 H        -1.403153         2.596701         0.281242
 H        -0.517640         0.310615         2.819833
 H        -1.563729        -1.003297         2.158633
 H        -4.556849         1.046728         2.559122
 H        -3.712448         2.731957         2.542195
 H        -5.280533         1.479963         0.322150
 H        -4.267605         2.931033         0.112875
 H        -2.895022        -0.672452         0.392750
