19
Iteration:  4252charge 0 multiplicity 1
 O        -0.020633         0.016187        -0.151703
 C        -0.949633         0.536056         0.792210
 C        -1.183540         2.029473         1.103532
 C        -2.413858         1.190926         1.700324
 C        -1.131538         0.171484         2.315791
 C        -3.886839         1.720603         1.964830
 C        -4.431517         1.725707         0.469724
 O        -3.367120         1.056707        -0.338731
 C        -2.488726         0.239204         0.476785
 H         0.852494         0.360300         0.066665
 H        -0.633216         2.649283         1.840034
 H        -1.554508         2.607891         0.202252
 H        -0.562849         0.815970         3.124028
 H        -1.434931        -0.852183         2.490044
 H        -4.464729         0.974517         2.612246
 H        -3.979754         2.683412         2.473157
 H        -5.363677         1.125822         0.347538
 H        -4.463350         2.808610         0.188120
 H        -2.842848        -0.748111         0.751663
