19
Iteration:  1834
 O         0.114051         0.146897        -0.001076
 C        -1.019074         0.542577         0.666791
 C        -1.217858         1.948528         1.061540
 C        -2.409688         1.031307         1.754172
 C        -1.321451         0.048754         2.188851
 C        -3.746070         1.661445         2.014910
 C        -4.261352         1.844634         0.568901
 O        -3.422777         1.109972        -0.350118
 C        -2.618924         0.389879         0.412023
 H         0.372614        -0.738402         0.396263
 H        -0.586070         2.515766         1.693860
 H        -1.634859         2.507149         0.185233
 H        -0.564568         0.594622         2.846329
 H        -1.530185        -1.019719         2.395814
 H        -4.460258         1.078121         2.632530
 H        -3.486977         2.591287         2.498787
 H        -5.303079         1.445054         0.414755
 H        -4.229230         2.878099         0.117661
 H        -2.983120        -0.603111         0.563323
