19
Iteration:  3770
 O         0.028825         0.059595        -0.157016
 C        -1.026853         0.509704         0.639050
 C        -1.274942         1.932664         1.048923
 C        -2.427969         1.168464         1.870670
 C        -1.256013         0.224379         2.307670
 C        -3.746463         1.750953         2.029289
 C        -4.343118         1.641228         0.458053
 O        -3.286589         1.100492        -0.350108
 C        -2.584367         0.266926         0.511544
 H         0.593430         0.812933        -0.379481
 H        -0.494907         2.456089         1.692861
 H        -1.714896         2.494261         0.240914
 H        -0.495969         0.882764         2.748456
 H        -1.562178        -0.728038         2.959174
 H        -4.229242         1.210699         2.857913
 H        -3.606735         2.814567         2.356611
 H        -5.039427         0.759429         0.644498
 H        -4.917170         2.513760         0.095343
 H        -2.969366        -0.755396         0.643877
