19
Iteration:  2982
 O         0.034803         0.189765        -0.176341
 C        -1.050495         0.523858         0.680274
 C        -1.384333         2.006485         1.050934
 C        -2.407571         1.147636         1.823732
 C        -1.212125         0.173553         2.195170
 C        -3.778149         1.762240         2.092843
 C        -4.189729         1.844757         0.490716
 O        -3.407895         0.857238        -0.348931
 C        -2.481761         0.223870         0.565694
 H         0.285040        -0.683369         0.235445
 H        -0.601416         2.602413         1.552376
 H        -1.852498         2.713685         0.329941
 H        -0.699646         0.717683         2.933436
 H        -1.574394        -0.884719         2.416389
 H        -4.394138         1.078677         2.639013
 H        -3.661316         2.803711         2.406890
 H        -5.322314         1.670551         0.465528
 H        -3.798366         2.838126         0.164724
 H        -2.840461        -0.841864         0.597401
