19
Iteration:  2811charge 0 multiplicity 1
 O         0.019931        -0.013945        -0.036965
 C        -0.949185         0.546363         0.723173
 C        -1.146318         2.069584         1.004824
 C        -2.335750         1.227896         1.693804
 C        -1.215607         0.309115         2.252333
 C        -3.785858         1.725106         1.981550
 C        -4.404707         1.479142         0.606777
 O        -3.438340         1.142435        -0.329813
 C        -2.488082         0.314266         0.446055
 H        -0.449526        -0.515755        -0.719756
 H        -0.435704         2.486190         1.775341
 H        -1.560397         2.695748         0.157386
 H        -0.518291         0.528020         3.070259
 H        -1.543561        -0.819243         2.378026
 H        -4.261903         1.120120         2.872857
 H        -3.955361         2.764743         2.352162
 H        -5.283741         0.906781         0.745911
 H        -4.943001         2.389584         0.181445
 H        -2.917560        -0.704552         0.685836
