19
Iteration:  1254charge 0 multiplicity 1
 O         0.221137        -0.071279         0.100106
 C        -0.933039         0.503734         0.731376
 C        -1.219861         2.029472         1.034637
 C        -2.378377         1.157074         1.709057
 C        -1.334862         0.117860         2.191114
 C        -3.781869         1.651800         1.997232
 C        -4.359667         1.739572         0.598036
 O        -3.490886         1.220187        -0.394233
 C        -2.566858         0.382322         0.432928
 H         0.112205         0.120497        -0.867783
 H        -0.427287         2.338119         1.658153
 H        -1.351316         2.578257         0.039011
 H        -0.672863         0.386621         3.055528
 H        -1.789751        -0.906403         2.188460
 H        -4.324349         0.988185         2.646436
 H        -3.930650         2.609740         2.441701
 H        -5.447827         1.324335         0.621858
 H        -4.459237         2.836542         0.285817
 H        -2.970294        -0.680224         0.445516
