19
Iteration:  3229charge 0 multiplicity 1
 O        -0.042764        -0.224480        -0.051449
 C        -1.008679         0.554139         0.698384
 C        -1.231875         2.135837         1.033288
 C        -2.331101         1.214743         1.762921
 C        -1.110555         0.392729         2.226319
 C        -3.813746         1.560325         2.006856
 C        -4.428079         1.571158         0.614236
 O        -3.386704         1.159505        -0.391654
 C        -2.507074         0.395735         0.439193
 H         0.871565         0.122883         0.089721
 H        -0.614165         2.550697         1.820141
 H        -1.515209         2.941394         0.330450
 H        -0.258792         0.814418         2.856481
 H        -1.483315        -0.604754         2.565334
 H        -4.248939         0.762077         2.651431
 H        -4.236044         2.538759         2.387900
 H        -5.444710         0.917546         0.331370
 H        -4.576752         2.709009         0.304098
 H        -2.928798        -0.654928         0.507984
