19
Iteration:  1816
 O         0.072451         0.095939        -0.083926
 C        -0.972776         0.515758         0.704071
 C        -1.389216         1.972149         1.126776
 C        -2.402732         1.120894         1.836391
 C        -1.141072         0.005162         2.121878
 C        -3.883854         1.767147         1.983452
 C        -4.285791         1.965760         0.477155
 O        -3.400162         1.091807        -0.351139
 C        -2.503345         0.210062         0.549704
 H         0.736055        -0.514249         0.336788
 H        -0.563046         2.341196         1.792396
 H        -1.685336         2.697978         0.395607
 H        -0.397492         0.145450         2.845554
 H        -1.476053        -0.993858         2.088977
 H        -4.545073         1.061617         2.503380
 H        -3.963891         2.728564         2.629708
 H        -5.325700         1.641022         0.272030
 H        -4.204158         3.014946         0.232755
 H        -2.865950        -0.846775         0.402905
