19
Iteration:  4329
 O         0.218474         0.017395         0.000239
 C        -0.967118         0.518149         0.681213
 C        -1.125611         2.094017         1.056840
 C        -2.318209         1.249956         1.722281
 C        -1.240698         0.172999         2.260762
 C        -3.876852         1.727483         2.009465
 C        -4.561497         1.525907         0.537070
 O        -3.468263         1.141082        -0.405300
 C        -2.579785         0.363754         0.478478
 H         0.382476        -0.966997        -0.065455
 H        -0.192374         2.308592         1.702075
 H        -1.203978         2.853712         0.308635
 H        -0.339629         0.625076         2.864601
 H        -1.619708        -0.832710         2.478933
 H        -4.359908         1.176290         2.870978
 H        -3.881006         2.785853         2.331556
 H        -5.323655         0.791039         0.345290
 H        -5.005319         2.526131         0.207961
 H        -2.900255        -0.662458         0.614607
