19
Iteration:  2453
 O         0.050559         0.010778        -0.070577
 C        -1.024993         0.548770         0.641728
 C        -1.337872         2.047143         0.919098
 C        -2.327869         1.160083         1.736592
 C        -1.222303         0.331142         2.166150
 C        -3.779165         1.557859         2.003687
 C        -4.296014         1.980289         0.593059
 O        -3.465812         0.897460        -0.259889
 C        -2.541479         0.203158         0.530707
 H         0.926980         0.257999         0.327768
 H        -0.559264         2.489728         1.527342
 H        -1.787225         2.691931         0.191136
 H        -0.385913         0.795681         2.878125
 H        -1.224375        -0.736420         2.653434
 H        -4.437306         0.759267         2.436807
 H        -3.848166         2.251553         2.840812
 H        -5.337326         1.777083         0.414656
 H        -3.921140         2.957889         0.239762
 H        -2.912284        -0.767434         0.813279
