19
Iteration:  1179charge 0 multiplicity 1
 O         0.000354         0.174599        -0.218613
 C        -1.049397         0.494363         0.787866
 C        -1.278623         1.963758         1.151041
 C        -2.363717         1.101144         1.836227
 C        -1.268783         0.142685         2.291091
 C        -3.898337         1.689784         1.915009
 C        -4.174783         1.911810         0.468727
 O        -3.304559         1.021142        -0.352753
 C        -2.566377         0.238776         0.541034
 H         0.177753        -0.772619        -0.310045
 H        -0.668203         2.264806         1.917495
 H        -1.611652         2.713629         0.403571
 H        -0.446246         0.427281         2.981433
 H        -1.546768        -0.931133         2.374372
 H        -4.473911         1.063272         2.552345
 H        -3.814394         2.679222         2.396341
 H        -5.171750         1.702645         0.101123
 H        -3.851776         2.894911         0.271696
 H        -3.003809        -0.718887         0.692583
