19
Iteration:  3294charge 0 multiplicity 1
 O         0.029485         0.151747        -0.191876
 C        -0.946648         0.534538         0.663273
 C        -1.346579         1.957149         1.140376
 C        -2.430438         1.088460         1.814980
 C        -1.157351         0.236383         2.222152
 C        -3.674061         1.824332         1.963683
 C        -4.293043         1.839280         0.462955
 O        -3.457074         0.795587        -0.289516
 C        -2.628711         0.214851         0.556168
 H         0.746671         0.701527         0.134370
 H        -0.774926         2.443293         1.931088
 H        -1.507481         2.694487         0.319555
 H        -0.440474         0.726922         3.033815
 H        -1.581604        -0.767098         2.608200
 H        -4.312691         1.261287         2.659185
 H        -3.710384         2.772547         2.542637
 H        -5.399544         1.774908         0.392690
 H        -4.178602         2.795822        -0.298988
 H        -2.761107        -0.956767         0.624996
