19
Iteration:  2342
 O         0.065383        -0.179585        -0.061365
 C        -0.995226         0.499656         0.636736
 C        -1.361794         2.085278         1.038862
 C        -2.375567         1.218821         1.728598
 C        -1.185217         0.313381         2.186622
 C        -3.726484         1.661621         2.099323
 C        -4.451924         1.588205         0.579208
 O        -3.373529         1.147844        -0.379115
 C        -2.489931         0.373755         0.482547
 H         0.798600         0.443053        -0.094821
 H        -0.692683         2.694461         1.634548
 H        -1.740613         2.717210         0.236552
 H        -0.451540         0.728998         2.933011
 H        -1.516833        -0.738039         2.683679
 H        -4.288779         1.104988         2.883685
 H        -3.608320         2.668595         2.454790
 H        -5.387533         1.036168         0.520216
 H        -4.801702         2.549798         0.253170
 H        -2.824146        -0.635310         0.647581
