19
Iteration:  4848charge 0 multiplicity 1
 O         0.029868         0.071981        -0.067762
 C        -0.973066         0.604638         0.719085
 C        -1.306828         2.064224         1.036054
 C        -2.434054         1.203066         1.841474
 C        -1.301951         0.148407         2.247620
 C        -3.854550         1.645190         1.997121
 C        -4.312352         1.677867         0.496957
 O        -3.271444         1.011382        -0.383258
 C        -2.403318         0.355300         0.539303
 H        -0.446887        -0.463953        -0.758525
 H        -0.462302         2.591015         1.684961
 H        -1.808145         2.609258         0.250098
 H        -0.539343         0.728657         2.930474
 H        -1.671027        -0.874842         2.334544
 H        -4.319906         0.898830         2.719800
 H        -4.056474         2.584050         2.497930
 H        -5.266063         1.173280         0.216335
 H        -4.372590         2.728596         0.226668
 H        -2.627750        -0.731287         0.719393
