19
Iteration:  2584charge 0 multiplicity 1
 O         0.008396        -0.057436        -0.090327
 C        -1.008982         0.584206         0.692339
 C        -1.282532         2.044500         1.057364
 C        -2.341897         1.249533         1.717484
 C        -1.289129         0.188824         2.263160
 C        -3.657201         1.857940         2.093281
 C        -4.365762         1.486223         0.532666
 O        -3.426738         1.090897        -0.387194
 C        -2.499028         0.306633         0.466367
 H         0.726833         0.607267        -0.227478
 H        -0.443561         2.532106         1.570654
 H        -1.749445         2.639046         0.241394
 H        -0.418516         0.529456         2.856755
 H        -1.633434        -0.855704         2.350377
 H        -4.152300         1.221915         2.815969
 H        -3.644301         2.889415         2.322255
 H        -4.978601         0.644062         1.026736
 H        -5.069970         2.223673         0.186344
 H        -3.088526        -0.623918         0.754141
