19
Iteration:    67charge 0 multiplicity 1
 O         0.087588         0.022150         0.028007
 C        -0.953124         0.482332         0.788083
 C        -1.289138         1.957125         0.989018
 C        -2.356578         1.168511         1.670860
 C        -1.314486         0.233788         2.389142
 C        -3.712310         1.852638         2.001313
 C        -4.386158         1.538626         0.605636
 O        -3.402225         1.151569        -0.482430
 C        -2.472665         0.347203         0.435550
 H        -0.347327        -0.287880        -0.838584
 H        -0.532313         2.426656         1.594724
 H        -1.517292         2.534950         0.119042
 H        -0.764099         0.773847         3.111634
 H        -1.695596        -0.756763         2.540419
 H        -4.161163         1.249060         2.746150
 H        -3.563408         2.894396         2.359628
 H        -5.034892         0.651598         0.671827
 H        -4.957308         2.288283         0.103465
 H        -3.048784        -0.553100         0.443695
