19
Iteration:  2104charge 0 multiplicity 1
 O         0.051758         0.232027        -0.134223
 C        -0.957033         0.536567         0.645562
 C        -1.316489         1.915586         1.033788
 C        -2.388857         1.133508         1.848860
 C        -1.226251         0.145510         2.256329
 C        -3.826579         1.773610         1.929390
 C        -4.220988         1.891649         0.461330
 O        -3.435414         0.820097        -0.292476
 C        -2.526079         0.336722         0.666284
 H        -0.156917        -0.617031        -0.543983
 H        -0.392852         2.343909         1.557266
 H        -1.707301         2.638608         0.209400
 H        -0.454252         0.446101         2.934266
 H        -1.497216        -0.863986         2.411463
 H        -4.511806         0.951548         2.356290
 H        -3.843325         2.656369         2.557353
 H        -5.287436         1.536921         0.503156
 H        -4.077792         2.897370         0.028879
 H        -2.862058        -0.660950         0.851338
