19
Iteration:  2408
 O        -0.070042         0.112027        -0.253425
 C        -0.990777         0.560443         0.648316
 C        -1.315007         2.007708         1.070546
 C        -2.379813         1.094399         1.782316
 C        -1.203004         0.229762         2.288105
 C        -3.803967         1.768868         1.940361
 C        -4.241990         1.887596         0.490146
 O        -3.410496         0.798727        -0.267715
 C        -2.491293         0.247343         0.651048
 H         0.678402         0.641686         0.126844
 H        -0.496911         2.433698         1.677086
 H        -1.607824         2.626313         0.242185
 H        -0.464608         0.601797         3.054013
 H        -1.440749        -0.869418         2.623995
 H        -4.468222         1.096711         2.528356
 H        -3.788912         2.652973         2.531176
 H        -5.279476         1.527729         0.402913
 H        -4.098035         2.902157         0.129906
 H        -2.720824        -0.791127         0.698991
