19
Iteration:   732
 O         0.020039        -0.046185        -0.043251
 C        -0.960538         0.492890         0.743974
 C        -1.125916         1.997033         1.069212
 C        -2.364571         1.249693         1.719064
 C        -1.397771         0.214300         2.301274
 C        -3.745756         1.785995         1.928391
 C        -4.485161         1.519560         0.539414
 O        -3.378296         1.153621        -0.399433
 C        -2.474497         0.359715         0.481377
 H         0.803967         0.574642         0.052273
 H        -0.275923         2.339416         1.728570
 H        -1.166754         2.675034         0.258179
 H        -0.523907         0.472122         2.955298
 H        -1.826592        -0.735468         2.611826
 H        -4.293867         1.238115         2.681834
 H        -3.740120         2.827142         2.279699
 H        -5.181601         0.663360         0.426842
 H        -4.997601         2.371679         0.041030
 H        -2.896229        -0.617160         0.784718
