19
Iteration:  3595
 O         0.063974         0.266553        -0.083655
 C        -1.039079         0.538222         0.682580
 C        -1.315959         1.945290         1.031001
 C        -2.366239         1.068828         1.850162
 C        -1.257964         0.201644         2.291871
 C        -3.701792         1.811382         1.989990
 C        -4.190301         1.791101         0.434173
 O        -3.485036         0.843795        -0.304333
 C        -2.566936         0.236433         0.593097
 H        -0.259277         0.192871        -0.998186
 H        -0.605375         2.614494         1.556290
 H        -1.566391         2.591173         0.147931
 H        -0.381660         0.458253         2.848840
 H        -1.371048        -0.960318         2.398594
 H        -4.261738         0.970510         2.470759
 H        -3.942823         2.752705         2.561291
 H        -5.223283         1.461468         0.173849
 H        -4.038484         2.874255         0.065898
 H        -2.833161        -0.879515         0.652366
