19
Iteration:   314charge 0 multiplicity 1
 O         0.172131        -0.046412        -0.024649
 C        -0.917880         0.538614         0.674709
 C        -1.134726         1.992198         0.990925
 C        -2.375942         1.271612         1.833424
 C        -1.330863         0.255349         2.247798
 C        -3.878143         1.637867         2.028623
 C        -4.427433         1.751788         0.403362
 O        -3.398321         1.079390        -0.383567
 C        -2.556996         0.353428         0.573764
 H        -0.073320        -0.900715        -0.510322
 H        -0.486793         2.409369         1.821417
 H        -1.520154         2.641146         0.206670
 H        -0.610703         0.717563         3.031165
 H        -1.624212        -0.797307         2.614970
 H        -4.406493         0.778060         2.519444
 H        -3.897099         2.448408         2.720622
 H        -5.419964         1.381803         0.271469
 H        -4.429138         2.836357         0.221525
 H        -2.919500        -0.688679         0.734904
