19
Iteration:   414charge 0 multiplicity 1
 O         0.084641         0.153927        -0.078486
 C        -1.028392         0.511399         0.724503
 C        -1.115270         1.952755         1.145489
 C        -2.377637         1.215285         1.812725
 C        -1.384003         0.067585         2.205846
 C        -3.808340         1.891815         1.947405
 C        -4.311884         1.654094         0.468057
 O        -3.392591         1.014888        -0.406356
 C        -2.548165         0.339153         0.539925
 H         0.209477        -0.827449        -0.141219
 H        -0.358416         2.212285         1.918612
 H        -1.263196         2.714146         0.321535
 H        -0.525844         0.401142         2.830053
 H        -1.668426        -1.027369         2.493029
 H        -4.482076         1.325511         2.582066
 H        -3.852732         2.938934         2.156001
 H        -5.119659         1.023452         0.719027
 H        -4.751617         2.612399         0.108074
 H        -2.852551        -0.692157         0.772509
