19
Iteration:  3019
 O         0.124454         0.187023        -0.233230
 C        -0.971594         0.506335         0.722340
 C        -1.240751         1.948390         1.048676
 C        -2.434293         1.153987         1.740787
 C        -1.301019         0.180780         2.227455
 C        -3.805389         1.754685         1.989743
 C        -4.306357         1.871243         0.527089
 O        -3.523546         0.896869        -0.243083
 C        -2.474754         0.217909         0.551838
 H         0.814168        -0.078839         0.419014
 H        -0.341185         2.281913         1.537506
 H        -1.538351         2.468617         0.160029
 H        -0.735921         0.634598         3.066502
 H        -1.482804        -0.804730         2.553370
 H        -4.488187         1.145410         2.571212
 H        -3.743310         2.627845         2.595238
 H        -5.391002         1.672478         0.277251
 H        -4.174885         2.908804         0.146063
 H        -2.607908        -0.842036         0.727370
