19
Iteration:   856charge 0 multiplicity 1
 O         0.118315         0.108033        -0.007716
 C        -1.023517         0.542810         0.704063
 C        -1.351560         1.951758         1.054652
 C        -2.441215         1.118304         1.818981
 C        -1.211638         0.147454         2.138238
 C        -3.805839         1.761735         1.959788
 C        -4.153556         1.969385         0.417316
 O        -3.516597         0.843140        -0.241720
 C        -2.570723         0.238560         0.489932
 H         0.974349         0.553290         0.253089
 H        -0.680669         2.410764         1.775940
 H        -1.613274         2.648215         0.163811
 H        -0.414608         0.657100         2.750072
 H        -1.460641        -0.963429         2.419678
 H        -4.549737         1.086938         2.410326
 H        -3.914421         2.703926         2.455667
 H        -5.220502         1.857624         0.184262
 H        -3.673598         2.810953        -0.137727
 H        -2.864457        -0.796582         0.857766
