19
Iteration:  4890charge 0 multiplicity 1
 O         0.079618        -0.020588         0.004364
 C        -0.980775         0.549569         0.684982
 C        -1.328116         1.999306         1.015435
 C        -2.370331         1.155291         1.803933
 C        -1.254077         0.263238         2.206557
 C        -3.859357         1.635149         2.056530
 C        -4.389450         1.627585         0.498020
 O        -3.244058         1.133355        -0.378730
 C        -2.529720         0.346056         0.480270
 H         0.274135         0.490183        -0.820567
 H        -0.602561         2.433025         1.777554
 H        -1.796165         2.600806         0.245117
 H        -0.447426         0.685631         2.870731
 H        -1.481337        -0.651813         2.817370
 H        -4.526012         1.122947         2.745644
 H        -3.913692         2.646267         2.453505
 H        -5.335249         1.028613         0.503493
 H        -4.671484         2.584876         0.138067
 H        -2.797205        -0.703972         0.445579
