19
Iteration:  2529
 O        -0.030437        -0.056602        -0.217863
 C        -1.011867         0.591676         0.701826
 C        -1.172014         2.030209         1.130593
 C        -2.352217         1.222197         1.825319
 C        -1.155464         0.202708         2.227089
 C        -3.758181         1.856064         2.006240
 C        -4.501632         1.473565         0.562456
 O        -3.351536         1.064064        -0.397333
 C        -2.536622         0.386638         0.526338
 H         0.852823         0.155518         0.115753
 H        -0.487414         2.566087         1.846474
 H        -1.551203         2.591044         0.276750
 H        -0.307371         0.524604         2.967566
 H        -1.637747        -0.825184         2.502175
 H        -4.303891         1.592292         2.929332
 H        -3.806506         2.910128         2.141706
 H        -5.327428         0.666607         0.701120
 H        -5.112113         2.249401         0.099055
 H        -2.830327        -0.749079         0.629382
