19
Iteration:  3318charge 0 multiplicity 1
 O         0.047801         0.095940        -0.096065
 C        -0.937321         0.584276         0.674681
 C        -1.311677         2.045940         1.018089
 C        -2.424458         1.079080         1.819540
 C        -1.246735         0.142142         2.219518
 C        -3.808511         1.768898         1.998380
 C        -4.125813         1.845949         0.476218
 O        -3.608865         0.760327        -0.234782
 C        -2.458384         0.302539         0.483857
 H         0.598853         0.902906        -0.199851
 H        -0.573349         2.632595         1.578589
 H        -1.864350         2.685597         0.366765
 H        -0.451237         0.636332         2.882959
 H        -1.291906        -0.919613         2.354442
 H        -4.537386         1.214603         2.645942
 H        -3.854023         2.759013         2.483779
 H        -5.260454         1.966401         0.251866
 H        -3.799630         2.897635         0.029939
 H        -2.721390        -0.762811         0.751933
