19
Iteration:  3622
 O         0.101368         0.072717        -0.179973
 C        -0.931397         0.511204         0.739208
 C        -1.276759         2.068674         1.089886
 C        -2.389523         1.196508         1.771367
 C        -1.326065         0.249969         2.295804
 C        -3.833542         1.674461         2.028920
 C        -4.310176         1.765467         0.560495
 O        -3.419176         0.885170        -0.360479
 C        -2.455691         0.344107         0.512502
 H        -0.425061        -0.156606        -0.975968
 H        -0.551542         2.609048         1.733830
 H        -1.430510         2.658936         0.190360
 H        -0.502168         0.536492         2.981845
 H        -1.465757        -0.752464         2.393208
 H        -4.472692         1.047518         2.664168
 H        -3.846934         2.669253         2.464691
 H        -5.169711         1.127512         0.424351
 H        -4.447117         2.811220         0.183891
 H        -2.799251        -0.646598         0.744179
