19
Iteration:  3977charge 0 multiplicity 1
 O         0.144042        -0.031645         0.047965
 C        -0.949295         0.522471         0.764447
 C        -1.273865         2.016650         0.816954
 C        -2.376851         1.096291         1.715583
 C        -1.180599         0.260718         2.302133
 C        -3.780776         1.627121         2.057847
 C        -4.302966         1.755931         0.573036
 O        -3.417798         1.165747        -0.333040
 C        -2.650036         0.258958         0.452775
 H        -0.015978         0.638865        -0.655357
 H        -0.882429         2.723282         1.573618
 H        -1.759418         2.525023        -0.006712
 H        -0.588864         0.861308         2.946517
 H        -1.401599        -0.784454         2.432464
 H        -4.387455         0.812057         2.462784
 H        -4.043283         2.504335         2.644168
 H        -5.245246         1.065612         0.649519
 H        -4.540491         2.822724         0.116244
 H        -3.049699        -0.817398         0.346058
