19
Iteration:   276charge 0 multiplicity 1
 O         0.071291         0.112318        -0.051156
 C        -1.043513         0.566696         0.720872
 C        -1.380833         2.014264         1.012826
 C        -2.464551         0.990466         1.799123
 C        -1.277507         0.214863         2.307379
 C        -3.718433         1.753155         2.061512
 C        -4.200289         1.873187         0.415590
 O        -3.338850         0.996041        -0.394377
 C        -2.531336         0.209308         0.555039
 H        -0.004305        -0.832646        -0.143307
 H        -0.720717         2.711220         1.507392
 H        -1.750938         2.536011         0.096864
 H        -0.640242         0.599829         3.084589
 H        -1.542237        -0.833408         2.404314
 H        -4.414087         1.155907         2.656237
 H        -3.638977         2.819379         2.485139
 H        -5.288363         1.608850         0.244328
 H        -4.019215         2.866471        -0.018520
 H        -2.777442        -0.870156         0.480378
