19
Iteration:  4222
 O        -0.018654         0.013179        -0.138135
 C        -1.060115         0.600003         0.667025
 C        -1.219271         2.092843         1.058900
 C        -2.355828         1.287779         1.787809
 C        -1.388891         0.242633         2.293431
 C        -3.777550         1.578751         2.006000
 C        -4.201504         1.837217         0.501614
 O        -3.346266         0.875815        -0.364354
 C        -2.499672         0.224907         0.555909
 H         0.457366         0.836761        -0.434838
 H        -0.548059         2.568156         1.809613
 H        -1.612202         2.713255         0.328869
 H        -0.770393         0.395954         3.115280
 H        -1.776814        -0.750191         2.563451
 H        -4.196191         0.609777         2.162076
 H        -4.048093         2.377324         2.722090
 H        -5.229832         1.470163         0.299789
 H        -4.059350         2.872900         0.151773
 H        -2.821521        -0.736611         1.003089
