19
Iteration:  4586
 O         0.069737         0.005377        -0.043110
 C        -0.919681         0.578775         0.751392
 C        -1.306838         2.005171         1.004451
 C        -2.412312         1.099299         1.741208
 C        -1.292986         0.268748         2.259705
 C        -3.736415         1.761121         1.991949
 C        -4.382742         1.549511         0.537785
 O        -3.447642         1.158826        -0.399097
 C        -2.449294         0.304384         0.469506
 H         0.905951         0.264856         0.361248
 H        -0.780703         2.605384         1.683537
 H        -1.517457         2.590789         0.110427
 H        -0.513526         0.764511         2.940590
 H        -1.391694        -0.762976         2.555619
 H        -4.431416         1.139735         2.603341
 H        -3.845736         2.615645         2.576394
 H        -4.991679         0.689914         0.762019
 H        -5.049766         2.314486         0.192846
 H        -2.813499        -0.692801         0.344978
