19
Iteration:  3779charge 0 multiplicity 1
 O         0.053476        -0.017897        -0.172773
 C        -1.060588         0.489506         0.619796
 C        -1.337524         1.961395         1.030235
 C        -2.360310         1.192677         1.801017
 C        -1.277986         0.293328         2.329809
 C        -3.807230         1.677613         1.993786
 C        -4.303159         1.585431         0.550696
 O        -3.274680         1.141034        -0.312273
 C        -2.523464         0.340676         0.544881
 H         0.614606         0.761554        -0.318283
 H        -0.458004         2.438838         1.498563
 H        -1.746891         2.647701         0.276062
 H        -0.513753         0.686550         2.955669
 H        -1.445623        -0.781794         2.682446
 H        -4.433964         1.029011         2.592275
 H        -3.847689         2.722129         2.394469
 H        -5.271816         0.984398         0.480525
 H        -4.645913         2.518150         0.091817
 H        -3.142203        -0.510749         0.796347
