19
Iteration:  2832charge 0 multiplicity 1
 O         0.062747         0.077500        -0.201235
 C        -1.020540         0.531247         0.660606
 C        -1.203447         2.029861         1.077156
 C        -2.335260         1.238297         1.776641
 C        -1.332388         0.227711         2.276875
 C        -3.738185         1.819749         1.997038
 C        -4.452634         1.477266         0.599894
 O        -3.308139         1.042712        -0.366665
 C        -2.530595         0.408967         0.548796
 H        -0.086158        -0.907171        -0.139293
 H        -0.425234         2.228151         1.789341
 H        -1.378743         2.626829         0.176933
 H        -0.486452         0.595960         2.867053
 H        -1.578290        -0.865399         2.611876
 H        -4.237144         1.403780         2.942313
 H        -3.822059         2.898432         2.199130
 H        -5.180000         0.633498         0.783373
 H        -5.072717         2.268122         0.079280
 H        -2.922252        -0.633513         0.659228
