19
Iteration:  2138
 O         0.095941         0.025967        -0.001722
 C        -0.932940         0.530245         0.752387
 C        -1.335774         1.972218         0.931544
 C        -2.424886         1.134605         1.684853
 C        -1.229296         0.290889         2.245979
 C        -3.761069         1.631282         2.086572
 C        -4.230802         1.850844         0.628379
 O        -3.471799         0.933816        -0.422162
 C        -2.557879         0.291888         0.486567
 H        -0.118428         0.424966        -0.876573
 H        -0.641564         2.605922         1.597033
 H        -1.649380         2.685165         0.103110
 H        -0.581951         0.837524         2.954674
 H        -1.489324        -0.703031         2.509122
 H        -4.357928         0.905117         2.710792
 H        -3.750828         2.573563         2.596811
 H        -5.305359         1.648520         0.484524
 H        -4.102441         2.885597         0.250943
 H        -2.793960        -0.697194         0.791347
