19
Iteration:   964
 O         0.207317         0.023960         0.023686
 C        -0.993596         0.484919         0.757071
 C        -1.216082         1.956850         1.041143
 C        -2.421898         1.185074         1.698802
 C        -1.433597         0.188199         2.217278
 C        -3.708628         1.737295         2.008814
 C        -4.439029         1.619579         0.548637
 O        -3.380997         1.202178        -0.374466
 C        -2.501044         0.369389         0.434976
 H        -0.071921        -0.557806        -0.677071
 H        -0.558185         2.443713         1.755266
 H        -1.461876         2.736317         0.229615
 H        -0.645728         0.526833         2.877727
 H        -1.809547        -0.790308         2.560768
 H        -4.146777         1.137192         2.813187
 H        -3.542683         2.707476         2.437066
 H        -5.227584         0.825921         0.587548
 H        -4.991067         2.509350         0.137495
 H        -2.670546        -0.685981         0.545313
