19
Iteration:  3221charge 0 multiplicity 1
 O        -0.055084        -0.194758        -0.016474
 C        -0.917443         0.517594         0.692115
 C        -1.199883         2.115963         0.995038
 C        -2.355456         1.302163         1.700175
 C        -1.162567         0.313534         2.235730
 C        -3.855925         1.564213         2.065838
 C        -4.509440         1.547415         0.601638
 O        -3.377494         1.169960        -0.359924
 C        -2.476354         0.419266         0.414510
 H         0.893239        -0.002418         0.132447
 H        -0.537447         2.645576         1.738075
 H        -1.702031         2.808447         0.306287
 H        -0.317697         0.825892         2.703134
 H        -1.202650        -0.700493         2.421448
 H        -4.240089         0.854310         2.851155
 H        -3.972302         2.562673         2.601148
 H        -5.375583         1.056987         0.076041
 H        -4.633866         2.527525         0.281537
 H        -2.749691        -0.588646         0.582257
