19
Iteration:    81
 O         0.119160         0.038706        -0.014594
 C        -0.972584         0.498993         0.751768
 C        -1.258305         1.988113         0.996221
 C        -2.389789         1.235820         1.844447
 C        -1.339373         0.164999         2.261033
 C        -3.745814         1.857568         1.911348
 C        -4.396496         1.533980         0.548109
 O        -3.339709         1.143039        -0.358287
 C        -2.511142         0.327519         0.451815
 H        -0.159273        -0.736929        -0.523845
 H        -0.580737         2.726583         1.538112
 H        -1.765991         2.449763         0.076995
 H        -0.476348         0.387200         2.953041
 H        -1.729505        -0.907436         2.556898
 H        -4.397010         1.504797         2.703012
 H        -3.733971         3.004408         1.981823
 H        -5.083623         0.700585         0.798545
 H        -4.943937         2.391610         0.247571
 H        -2.707582        -0.745933         0.594196
