19
Iteration:  2045charge 0 multiplicity 1
 O         0.049103         0.004801        -0.096931
 C        -0.934426         0.478352         0.758024
 C        -1.333804         2.011227         0.913096
 C        -2.361662         1.198113         1.764065
 C        -1.142552         0.170132         2.232174
 C        -3.872898         1.617346         2.017493
 C        -4.283768         1.869968         0.520240
 O        -3.460754         1.045790        -0.276930
 C        -2.544831         0.290063         0.568069
 H         0.921927         0.446601        -0.084124
 H        -0.584592         2.617425         1.387864
 H        -1.737047         2.523129         0.063840
 H        -0.447317         0.540816         2.959400
 H        -1.465621        -0.864735         2.410225
 H        -4.354957         0.775573         2.495321
 H        -4.137117         2.535845         2.643307
 H        -5.304514         1.763779         0.091736
 H        -4.061573         2.908357         0.260475
 H        -3.036750        -0.726422         0.613534
