19
Iteration:  2973
 O         0.007356         0.119111        -0.127820
 C        -0.977843         0.624311         0.618690
 C        -1.374052         2.009603         0.999331
 C        -2.442384         1.067192         1.806420
 C        -1.227592         0.222907         2.213902
 C        -3.801173         1.735351         2.051043
 C        -4.132682         1.826358         0.531695
 O        -3.391357         0.897879        -0.259183
 C        -2.522616         0.279098         0.535617
 H         0.229126        -0.838573        -0.066969
 H        -0.766426         2.521482         1.735625
 H        -1.811677         2.612862         0.177058
 H        -0.559292         0.622427         2.935100
 H        -1.282155        -0.883907         2.455961
 H        -4.512938         1.158855         2.622213
 H        -3.888143         2.685743         2.539832
 H        -5.247382         1.647139         0.245797
 H        -4.055563         2.821761         0.033923
 H        -2.699582        -0.838609         0.567795
