19
Iteration:  1682charge 0 multiplicity 1
 O         0.217933         0.068481         0.044249
 C        -0.958629         0.499223         0.688595
 C        -1.133137         1.882625         1.079454
 C        -2.413063         1.134482         1.722442
 C        -1.446107         0.070640         2.139740
 C        -3.825722         1.711983         2.016898
 C        -4.434483         1.820471         0.634767
 O        -3.371441         1.204721        -0.365015
 C        -2.470576         0.374005         0.436776
 H        -0.107291        -0.301717        -0.778980
 H        -0.358538         2.387444         1.619205
 H        -1.498611         2.492204         0.204263
 H        -0.713207         0.133904         2.933053
 H        -1.847796        -0.882623         2.139248
 H        -4.522259         1.020768         2.590502
 H        -3.867540         2.699770         2.558227
 H        -5.222405         1.050922         0.568451
 H        -4.797936         2.771875         0.243956
 H        -2.893701        -0.696403         0.570144
