19
Iteration:  2407
 O        -0.067301         0.115564        -0.255491
 C        -1.000245         0.555629         0.645343
 C        -1.313053         2.002393         1.075208
 C        -2.377672         1.102481         1.781836
 C        -1.197314         0.229671         2.294801
 C        -3.803083         1.774549         1.935328
 C        -4.239346         1.880639         0.495964
 O        -3.411615         0.803686        -0.274056
 C        -2.498066         0.248265         0.652715
 H         0.670526         0.644183         0.124271
 H        -0.500165         2.428031         1.721261
 H        -1.603728         2.625215         0.218496
 H        -0.468526         0.593209         3.037285
 H        -1.438476        -0.861327         2.627875
 H        -4.453729         1.090934         2.502718
 H        -3.804802         2.645810         2.537515
 H        -5.269335         1.477098         0.428518
 H        -4.074662         2.893521         0.110918
 H        -2.735089        -0.819309         0.716636
