19
Iteration:  2347
 O         0.060008        -0.157911        -0.097144
 C        -0.968842         0.485068         0.696719
 C        -1.387909         2.106164         1.053202
 C        -2.356283         1.217577         1.732600
 C        -1.212583         0.305488         2.191407
 C        -3.726396         1.679901         2.081514
 C        -4.406916         1.604901         0.582776
 O        -3.391439         1.146695        -0.349702
 C        -2.507875         0.323754         0.492121
 H         0.875134         0.387366        -0.239543
 H        -0.575351         2.656150         1.586547
 H        -1.825654         2.690115         0.226764
 H        -0.543798         0.773749         2.902325
 H        -1.577291        -0.608061         2.486990
 H        -4.247970         1.070532         2.834182
 H        -3.666008         2.745593         2.446704
 H        -5.309354         0.956372         0.374722
 H        -4.762748         2.581414         0.118437
 H        -2.741331        -0.796229         0.581643
