19
Iteration:  3422
 O         0.051953         0.066146        -0.081566
 C        -0.943053         0.524182         0.731122
 C        -1.068845         2.014082         1.107331
 C        -2.387812         1.292989         1.746823
 C        -1.229371         0.159574         2.273181
 C        -3.807968         1.819300         1.969043
 C        -4.506217         1.454622         0.610498
 O        -3.394122         1.043710        -0.371699
 C        -2.536876         0.420037         0.442868
 H        -0.300545        -0.182033        -0.968776
 H        -0.234106         2.319358         1.800142
 H        -1.125739         2.740532         0.211545
 H        -0.654818         0.641806         3.088022
 H        -1.740997        -0.832890         2.432123
 H        -4.348280         1.179716         2.711827
 H        -3.786712         2.885451         2.292323
 H        -5.111306         0.518610         0.596016
 H        -5.097407         2.357140         0.149120
 H        -2.836681        -0.638924         0.506209
