19
Iteration:  3605
 O         0.065149         0.242685        -0.125733
 C        -1.024130         0.562781         0.674313
 C        -1.256888         2.014905         1.017174
 C        -2.373802         1.204071         1.772954
 C        -1.332155         0.147206         2.239725
 C        -3.746669         1.742169         1.981418
 C        -4.247708         1.747286         0.511216
 O        -3.391441         0.853981        -0.277958
 C        -2.514411         0.194742         0.611047
 H        -0.241291         0.109761        -1.052065
 H        -0.536858         2.401219         1.726759
 H        -1.699385         2.645797         0.220860
 H        -0.678726         0.466637         3.063038
 H        -1.938096        -0.798772         2.550864
 H        -4.324729         1.076095         2.650627
 H        -3.795965         2.766708         2.436870
 H        -5.338882         1.583827         0.404046
 H        -3.946594         2.687196         0.072667
 H        -2.801953        -0.886819         0.828087
