19
Iteration:  3467
 O         0.052727         0.000196        -0.018238
 C        -0.999538         0.634609         0.650941
 C        -1.252420         2.023615         1.071954
 C        -2.417289         1.162648         1.754530
 C        -1.371010         0.132622         2.214038
 C        -3.716067         1.944490         1.961738
 C        -4.379152         1.385238         0.696045
 O        -3.345166         1.132442        -0.397449
 C        -2.448968         0.338841         0.462118
 H        -0.156335         0.093431        -0.975736
 H        -0.645936         2.614149         1.837257
 H        -1.733353         2.696980         0.305282
 H        -0.442433         0.520877         2.813977
 H        -1.469396        -0.986327         2.321142
 H        -4.324860         1.629527         2.829676
 H        -3.465786         3.037383         1.960592
 H        -4.646043         0.374526         1.123090
 H        -5.127883         2.067553         0.153229
 H        -2.771087        -0.673531         0.681758
