19
Iteration:  1111charge 0 multiplicity 1
 O         0.212463         0.088756         0.054066
 C        -0.943580         0.491050         0.615521
 C        -1.297827         1.991427         1.053274
 C        -2.447365         1.138090         1.701444
 C        -1.313177         0.214101         2.250511
 C        -3.784747         1.608403         2.080008
 C        -4.293529         2.072368         0.549991
 O        -3.481027         0.950437        -0.365329
 C        -2.551188         0.229897         0.405710
 H         0.129151        -0.808224        -0.401975
 H        -0.597551         2.438534         1.764043
 H        -1.696575         2.714086         0.329290
 H        -0.433413         0.417955         2.962790
 H        -1.605327        -0.869748         2.422395
 H        -4.472599         0.926958         2.534402
 H        -3.834048         2.544745         2.637244
 H        -5.324170         1.800269         0.321236
 H        -3.901926         3.022442         0.214073
 H        -2.865952        -0.798095         0.455081
