19
Iteration:  4353
 O         0.090159         0.001476         0.021395
 C        -0.930513         0.572770         0.731446
 C        -1.271689         2.069171         1.046257
 C        -2.374107         1.224484         1.737150
 C        -1.344756         0.208580         2.151700
 C        -3.782156         1.731314         1.979319
 C        -4.360719         1.521198         0.580673
 O        -3.373467         1.104353        -0.346083
 C        -2.480723         0.376689         0.489527
 H        -0.127566        -0.671708        -0.659446
 H        -0.495278         2.636998         1.665879
 H        -1.533383         2.640240         0.189518
 H        -0.695651         0.740051         2.865869
 H        -1.552825        -0.896764         2.389570
 H        -4.336726         1.053494         2.628238
 H        -3.869037         2.760086         2.444522
 H        -5.226500         0.814891         0.602807
 H        -4.787984         2.416354         0.021356
 H        -2.777124        -0.672322         0.593016
