19
Iteration:  1609
 O         0.013093         0.092496        -0.106452
 C        -1.016601         0.448435         0.690047
 C        -1.319523         1.937697         1.133110
 C        -2.363254         1.135838         1.838440
 C        -1.326011         0.049119         2.230238
 C        -3.765760         1.715250         1.976646
 C        -4.357178         1.720712         0.561890
 O        -3.195964         1.246028        -0.385481
 C        -2.510934         0.407672         0.458168
 H         0.118032        -0.848710        -0.233236
 H        -0.568223         2.446967         1.729589
 H        -1.720061         2.661324         0.365132
 H        -0.562632         0.221766         3.067866
 H        -1.852424        -0.962246         2.355382
 H        -4.433642         1.122572         2.551004
 H        -3.797372         2.710480         2.468042
 H        -5.259070         1.075965         0.502868
 H        -4.569485         2.673628         0.159320
 H        -2.985896        -0.524584         0.374970
