19
Iteration:   229
 O         0.080211         0.220637        -0.040889
 C        -1.028845         0.522707         0.746765
 C        -1.204388         2.036232         0.982096
 C        -2.344060         1.181375         1.804676
 C        -1.348143         0.121431         2.326797
 C        -3.790261         1.686928         1.956066
 C        -4.108055         1.926465         0.470510
 O        -3.539137         0.832620        -0.364859
 C        -2.591928         0.247017         0.498191
 H        -0.020397        -0.735411         0.094288
 H        -0.448811         2.467416         1.572083
 H        -1.424209         2.751952         0.251001
 H        -0.638298         0.475815         3.018783
 H        -1.730383        -0.855612         2.367593
 H        -4.406427         0.859124         2.353150
 H        -3.740100         2.564803         2.582030
 H        -5.180323         1.843958         0.254927
 H        -3.717964         2.856264        -0.060899
 H        -2.844477        -0.786415         0.772498
