19
Iteration:  1402charge 0 multiplicity 1
 O         0.153413        -0.067134         0.070592
 C        -1.024034         0.459169         0.720426
 C        -1.299228         1.933963         1.015118
 C        -2.423409         1.134289         1.727851
 C        -1.324471         0.144786         2.209608
 C        -3.709163         1.663074         2.050154
 C        -4.329926         1.788254         0.557291
 O        -3.400453         1.271285        -0.386170
 C        -2.545220         0.349130         0.338441
 H         0.746753         0.736019        -0.061447
 H        -0.686276         2.606573         1.616828
 H        -1.565080         2.546419         0.105817
 H        -0.544797         0.337268         3.006192
 H        -1.613262        -0.892240         2.369881
 H        -4.192622         0.716512         2.521982
 H        -3.727502         2.503186         2.815502
 H        -5.338103         1.245184         0.765117
 H        -4.597981         2.817997         0.215963
 H        -3.138758        -0.597278         0.398911
