19
Iteration:  2847charge 0 multiplicity 1
 O         0.003333         0.131134        -0.213254
 C        -0.952157         0.513226         0.726833
 C        -1.214892         1.990818         1.011648
 C        -2.364703         1.265703         1.807354
 C        -1.271317         0.110550         2.299060
 C        -3.762413         1.910866         2.026407
 C        -4.410393         1.455128         0.591447
 O        -3.367901         1.074096        -0.391681
 C        -2.508611         0.307327         0.536705
 H         0.522677        -0.655452         0.038801
 H        -0.476872         2.695867         1.540236
 H        -1.709602         2.626937         0.204669
 H        -0.602882         0.280918         3.212534
 H        -1.761895        -0.811757         2.311330
 H        -4.355660         1.557557         2.908927
 H        -3.606522         3.019434         1.998059
 H        -5.051558         0.593133         0.618179
 H        -4.751117         2.384429         0.166113
 H        -3.035840        -0.653181         0.814133
