19
Iteration:  2890
 O         0.086209        -0.056461        -0.103609
 C        -0.945532         0.485572         0.694428
 C        -1.332768         2.054455         1.035657
 C        -2.364426         1.186523         1.824375
 C        -1.207192         0.222269         2.179387
 C        -3.742719         1.766418         2.087161
 C        -4.350532         1.659252         0.573644
 O        -3.493255         1.051403        -0.408203
 C        -2.554156         0.293340         0.481302
 H         0.900959         0.431038         0.058303
 H        -0.516273         2.645623         1.527417
 H        -1.589238         2.770775         0.225658
 H        -0.452726         0.779933         2.878713
 H        -1.538474        -0.709286         2.569178
 H        -4.482314         1.302912         2.815521
 H        -3.601220         2.869876         2.228082
 H        -5.240666         1.084645         0.768137
 H        -4.774657         2.623643         0.216001
 H        -2.707414        -0.784251         0.519422
