19
Iteration:   332
 O         0.192089        -0.062011         0.015108
 C        -0.946230         0.435393         0.722233
 C        -1.107287         2.035951         1.065885
 C        -2.386998         1.270012         1.744340
 C        -1.231033         0.223781         2.234437
 C        -3.923428         1.653436         1.937786
 C        -4.462671         1.724237         0.484663
 O        -3.441305         1.126208        -0.318984
 C        -2.533137         0.460344         0.489955
 H        -0.193680        -0.861247        -0.496468
 H        -0.217159         2.358715         1.643818
 H        -1.324665         2.583312         0.109076
 H        -0.417353         0.512705         2.934370
 H        -1.566492        -0.786119         2.507567
 H        -4.370881         0.784378         2.479850
 H        -4.348903         2.571020         2.467344
 H        -5.394232         1.050609         0.423455
 H        -4.697959         2.664101         0.007162
 H        -2.862353        -0.574405         0.772956
