19
Iteration:  1630
 O        -0.035154        -0.005372        -0.199506
 C        -0.951774         0.601562         0.790543
 C        -1.225079         2.041552         1.126079
 C        -2.492373         1.091975         1.745153
 C        -1.368450         0.041944         2.216864
 C        -3.772956         1.675167         2.092102
 C        -4.265025         1.656431         0.475492
 O        -3.213747         1.292999        -0.340323
 C        -2.482216         0.372379         0.473533
 H        -0.364236        -0.898911         0.030004
 H        -0.667729         2.506156         1.919829
 H        -1.582232         2.782415         0.299673
 H        -0.850368         0.401062         3.200206
 H        -1.485665        -1.081268         2.252593
 H        -4.517038         1.266168         2.753776
 H        -3.819527         2.761626         2.397040
 H        -5.111611         0.952915         0.434618
 H        -4.613204         2.556106         0.095770
 H        -2.779203        -0.651112         0.345579
