19
Iteration:  2292
 O         0.092661        -0.054072        -0.171542
 C        -0.944144         0.525995         0.661796
 C        -1.221948         2.037325         0.963725
 C        -2.355775         1.284277         1.752401
 C        -1.403056         0.233445         2.312101
 C        -3.742837         1.727746         2.005191
 C        -4.374983         1.522748         0.708824
 O        -3.369232         1.092640        -0.391925
 C        -2.575384         0.414984         0.483412
 H         0.968851        -0.130133         0.252881
 H        -0.432576         2.653697         1.576133
 H        -1.656119         2.692780         0.181343
 H        -0.651427         0.519873         3.048749
 H        -1.694770        -0.679132         2.621063
 H        -4.165941         1.062420         2.799464
 H        -3.977996         2.755632         2.373765
 H        -5.217872         0.687473         0.574071
 H        -4.905981         2.498771         0.342847
 H        -2.899772        -0.676638         0.719073
