19
Iteration:  2506
 O        -0.043113        -0.050127        -0.101265
 C        -1.005769         0.593874         0.667446
 C        -1.299480         2.110964         0.967584
 C        -2.336504         1.212296         1.691998
 C        -1.268537         0.233899         2.158681
 C        -3.699987         1.728242         2.023293
 C        -4.302986         1.570093         0.598403
 O        -3.392690         1.054743        -0.267789
 C        -2.475710         0.321682         0.492426
 H         0.744863        -0.077597         0.501370
 H        -0.639994         2.479452         1.834901
 H        -1.618486         2.898289         0.285890
 H        -0.683537         0.687206         3.015064
 H        -1.692120        -0.825434         2.395791
 H        -4.259827         1.098841         2.745695
 H        -3.804457         2.669154         2.518607
 H        -5.281796         1.039215         0.850609
 H        -4.779425         2.459863         0.157950
 H        -2.821899        -0.797610         0.524792
