19
Iteration:  3644charge 0 multiplicity 1
 O         0.011245        -0.040335         0.037268
 C        -0.972734         0.611172         0.653610
 C        -1.306510         2.078468         1.057554
 C        -2.325675         1.202830         1.742825
 C        -1.113140         0.255064         2.234459
 C        -3.786946         1.554471         1.980510
 C        -4.421874         1.665351         0.496474
 O        -3.384555         1.129377        -0.320523
 C        -2.526346         0.304639         0.485152
 H        -0.342871        -0.434128        -0.768739
 H        -0.453160         2.524002         1.605160
 H        -1.580663         2.821806         0.323884
 H        -0.417764         0.809670         2.913274
 H        -1.213335        -0.711637         2.549599
 H        -4.348520         0.846026         2.604571
 H        -3.884387         2.526998         2.433768
 H        -5.393069         1.079216         0.486683
 H        -4.604753         2.743000         0.220946
 H        -2.824523        -0.733368         0.494837
