19
Iteration:  4845
 O         0.041988         0.081449        -0.069978
 C        -0.993475         0.608252         0.694648
 C        -1.287689         2.079792         1.050380
 C        -2.416215         1.204727         1.841256
 C        -1.328751         0.164361         2.248273
 C        -3.880743         1.653787         2.012634
 C        -4.282659         1.666286         0.491540
 O        -3.283347         0.986558        -0.387126
 C        -2.412842         0.365444         0.552140
 H        -0.332854        -0.510510        -0.751398
 H        -0.438472         2.532804         1.567298
 H        -1.749704         2.598841         0.202545
 H        -0.566877         0.499862         2.972531
 H        -1.590913        -0.951085         2.317744
 H        -4.330298         0.945481         2.664065
 H        -4.099668         2.590063         2.542420
 H        -5.270897         1.222037         0.250465
 H        -4.364756         2.721965         0.300639
 H        -2.635812        -0.685897         0.693976
