19
Iteration:  2001charge 0 multiplicity 1
 O         0.190516        -0.043930         0.018650
 C        -0.915012         0.565528         0.685331
 C        -1.344078         2.006239         1.020700
 C        -2.387861         1.127097         1.658892
 C        -1.278097         0.246461         2.224715
 C        -3.736956         1.648658         2.047052
 C        -4.348017         1.800350         0.590567
 O        -3.494185         1.078346        -0.351689
 C        -2.516065         0.319759         0.423792
 H        -0.330614        -0.483390        -0.699036
 H        -0.797295         2.539481         1.826833
 H        -1.599317         2.643547         0.222182
 H        -0.618171         0.605503         3.007076
 H        -1.550190        -0.777775         2.427001
 H        -4.217264         1.012946         2.799779
 H        -3.618524         2.675767         2.559647
 H        -5.410415         1.510224         0.693109
 H        -4.322549         2.859836         0.357915
 H        -2.835905        -0.749096         0.454183
