19
Iteration:  4191
 O         0.129601         0.025115        -0.041583
 C        -0.987246         0.555066         0.661579
 C        -1.375999         1.949413         1.013062
 C        -2.458143         1.039199         1.840425
 C        -1.162462         0.250712         2.253962
 C        -3.909837         1.669554         2.013919
 C        -4.169904         1.966646         0.515107
 O        -3.450208         0.945132        -0.383448
 C        -2.498974         0.229632         0.545653
 H         0.374654         0.795813        -0.553860
 H        -0.822956         2.732257         1.600548
 H        -1.835149         2.401634         0.188676
 H        -0.515763         0.891115         2.839453
 H        -1.156806        -0.883292         2.604486
 H        -4.705125         1.070317         2.436934
 H        -3.884396         2.556421         2.742686
 H        -5.210517         1.817703         0.191289
 H        -4.026053         2.962967         0.123976
 H        -2.814607        -0.847378         0.639009
