19
Iteration:  3624charge 0 multiplicity 1
 O         0.100156         0.055617        -0.174655
 C        -0.926808         0.524122         0.739662
 C        -1.259486         2.074026         1.091582
 C        -2.396037         1.176202         1.780429
 C        -1.306193         0.262358         2.290573
 C        -3.827542         1.687390         2.028952
 C        -4.329042         1.751972         0.554418
 O        -3.429912         0.907791        -0.374447
 C        -2.451812         0.349552         0.516912
 H        -0.442366        -0.189865        -0.969638
 H        -0.601393         2.574224         1.785340
 H        -1.513435         2.629741         0.158053
 H        -0.485203         0.584443         2.999528
 H        -1.493583        -0.815070         2.437223
 H        -4.420555         1.001291         2.642708
 H        -3.906471         2.649621         2.526642
 H        -5.191737         1.119357         0.413117
 H        -4.406718         2.744006         0.182865
 H        -2.772241        -0.662562         0.714243
