19
Iteration:  1099
 O         0.196404         0.054966         0.085380
 C        -1.001918         0.536743         0.715761
 C        -1.260711         1.988248         0.978514
 C        -2.354142         1.124810         1.752525
 C        -1.203362         0.151421         2.174810
 C        -3.886626         1.608691         1.946211
 C        -4.267939         1.901663         0.608192
 O        -3.499675         1.090655        -0.385631
 C        -2.584053         0.270352         0.453641
 H         0.081250        -0.838378        -0.232499
 H        -0.557155         2.577450         1.635156
 H        -1.530281         2.544554         0.101791
 H        -0.506228         0.658888         2.895639
 H        -1.683401        -0.785475         2.552247
 H        -4.484412         0.822849         2.373706
 H        -3.921453         2.480548         2.573670
 H        -5.358699         1.938359         0.422557
 H        -4.011076         2.970891         0.412733
 H        -2.945843        -0.722953         0.648178
