19
Iteration:  2242
 O        -0.056502         0.027367        -0.234963
 C        -0.986685         0.504352         0.654299
 C        -1.349444         2.036326         1.119923
 C        -2.364033         1.167664         1.942978
 C        -1.156722         0.154387         2.266180
 C        -3.810768         1.925486         1.971637
 C        -4.326635         1.602828         0.459322
 O        -3.362667         1.024026        -0.358174
 C        -2.478027         0.274841         0.583092
 H         0.790277         0.521978        -0.052169
 H        -0.604047         2.503120         1.700163
 H        -1.709789         2.644244         0.268008
 H        -0.372779         0.314389         3.080571
 H        -1.390712        -1.028103         2.459131
 H        -4.662536         1.695906         2.592415
 H        -3.548785         2.980598         2.173800
 H        -5.055672         0.802027         0.660123
 H        -4.739824         2.417617        -0.114822
 H        -2.813775        -0.709751         0.882572
