19
Iteration:   409
 O         0.084422         0.181927        -0.067898
 C        -1.043800         0.409026         0.715954
 C        -1.082364         1.987379         1.139982
 C        -2.393641         1.189368         1.820605
 C        -1.339953         0.045630         2.190397
 C        -3.790965         1.878000         1.924459
 C        -4.313691         1.655562         0.451935
 O        -3.407598         1.059603        -0.378012
 C        -2.564608         0.358814         0.564280
 H         0.187764        -0.763712        -0.069862
 H        -0.359462         2.213639         1.951364
 H        -1.388556         2.577911         0.299900
 H        -0.594612         0.559029         2.854213
 H        -1.473272        -0.944298         2.553240
 H        -4.646698         1.415062         2.519080
 H        -3.821529         3.008991         2.042254
 H        -5.242296         0.918358         0.657088
 H        -4.755818         2.536314         0.007379
 H        -2.861128        -0.704074         0.760045
