19
Iteration:   471charge 0 multiplicity 1
 O         0.094280        -0.024306         0.085469
 C        -1.032147         0.448974         0.685776
 C        -1.284215         2.007569         0.967809
 C        -2.397761         1.199762         1.792675
 C        -1.176070         0.209872         2.209569
 C        -3.871228         1.596761         2.050521
 C        -4.419599         1.797314         0.452143
 O        -3.251051         1.206549        -0.368031
 C        -2.558780         0.285679         0.519409
 H         0.209862        -0.555343        -0.691186
 H        -0.495075         2.439800         1.542711
 H        -1.670925         2.661527         0.128951
 H        -0.449427         0.872019         2.702611
 H        -1.378473        -0.864123         2.544921
 H        -4.324817         0.883394         2.704839
 H        -4.066660         2.532573         2.596937
 H        -5.314964         1.293979         0.196487
 H        -4.499274         2.893525         0.182258
 H        -3.095631        -0.662987         0.618949
