19
Iteration:  4304
 O         0.123805         0.068680        -0.008882
 C        -0.949767         0.557909         0.726279
 C        -1.271691         1.962701         1.014982
 C        -2.371808         1.192594         1.649213
 C        -1.381735         0.199528         2.247705
 C        -3.729769         1.766955         1.978455
 C        -4.443054         1.582618         0.642248
 O        -3.388646         1.099183        -0.371208
 C        -2.505490         0.384112         0.428196
 H         0.703396        -0.588122         0.397829
 H        -0.599041         2.472309         1.689945
 H        -1.444814         2.582352         0.059074
 H        -0.576634         0.499372         2.947587
 H        -1.854804        -0.741430         2.208580
 H        -4.205447         1.157323         2.794251
 H        -3.668218         2.729662         2.444859
 H        -5.012353         0.662666         0.592606
 H        -5.021849         2.448723         0.306876
 H        -2.720746        -0.697649         0.524607
