19
Iteration:  3909charge 0 multiplicity 1
 O         0.123527         0.133433        -0.133853
 C        -0.985312         0.557192         0.715566
 C        -1.274200         2.078922         1.093114
 C        -2.421652         1.107727         1.824139
 C        -1.191108         0.172530         2.299386
 C        -3.835466         1.745974         1.960074
 C        -4.252774         1.838434         0.461289
 O        -3.513647         0.822785        -0.270363
 C        -2.502817         0.239920         0.499541
 H        -0.048732         0.092758        -1.075010
 H        -0.581080         2.546602         1.850268
 H        -1.732366         2.717344         0.352209
 H        -0.399764         0.567964         2.890808
 H        -1.510012        -0.896949         2.487843
 H        -4.463569         1.098207         2.575558
 H        -3.754093         2.721701         2.498242
 H        -5.331568         1.820926         0.033916
 H        -3.932601         2.926456         0.093807
 H        -2.922021        -0.833757         0.663113
