19
Iteration:  3586charge 0 multiplicity 1
 O         0.085354         0.234659        -0.077094
 C        -1.015570         0.526812         0.734087
 C        -1.377645         1.948167         1.036319
 C        -2.418722         1.118144         1.856091
 C        -1.107743         0.169615         2.293173
 C        -3.755587         1.731319         1.999189
 C        -4.175096         1.895110         0.424414
 O        -3.504118         0.821766        -0.328172
 C        -2.574899         0.226508         0.532174
 H        -0.185024         0.200648        -1.005119
 H        -0.570215         2.464874         1.653123
 H        -1.831427         2.461180         0.178058
 H        -0.365400         0.740275         2.785429
 H        -1.203904        -0.912937         2.468049
 H        -4.601668         1.170634         2.452843
 H        -3.660380         2.741807         2.490711
 H        -5.268064         1.691011         0.488254
 H        -4.132647         2.940376        -0.101611
 H        -2.856012        -0.837431         0.711473
