19
Iteration:  4098
 O        -0.017509        -0.066953        -0.019332
 C        -0.970766         0.547531         0.722435
 C        -1.224306         2.086545         1.088243
 C        -2.369043         1.206871         1.826585
 C        -1.181988         0.250924         2.275378
 C        -3.841476         1.682374         2.035038
 C        -4.398876         1.640764         0.513577
 O        -3.335411         1.128599        -0.431317
 C        -2.487231         0.264080         0.431250
 H         0.003061         0.082374        -1.001875
 H        -0.569429         2.641973         1.723503
 H        -1.612512         2.797900         0.280499
 H        -0.302087         0.613901         2.880212
 H        -1.340091        -0.774751         2.468201
 H        -4.424403         0.962876         2.651630
 H        -3.991299         2.623171         2.511901
 H        -5.314766         1.091774         0.429129
 H        -4.855706         2.596794         0.227131
 H        -2.735633        -0.814127         0.467982
