19
Iteration:  2465
 O         0.102875         0.006276        -0.086836
 C        -0.966738         0.517138         0.648107
 C        -1.262341         1.977631         0.862883
 C        -2.405467         1.171240         1.734758
 C        -1.130766         0.339577         2.238852
 C        -3.859023         1.581010         2.046669
 C        -4.290883         1.843233         0.576479
 O        -3.500369         1.045832        -0.233997
 C        -2.628030         0.233336         0.542841
 H         0.856216         0.189871         0.490089
 H        -0.583434         2.518528         1.488397
 H        -1.436438         2.493523        -0.068357
 H        -0.265740         0.950450         2.737846
 H        -1.392187        -0.738778         2.492792
 H        -4.267821         0.586077         2.322676
 H        -4.059725         2.439367         2.722276
 H        -5.324344         1.589758         0.357504
 H        -4.207595         2.921997         0.358067
 H        -2.925373        -0.787728         0.559126
