19
Iteration:   129charge 0 multiplicity 1
 O        -0.031267        -0.037583        -0.116996
 C        -0.912211         0.496075         0.760430
 C        -1.213002         2.087625         1.087165
 C        -2.361063         1.170644         1.761272
 C        -1.353309         0.191143         2.356216
 C        -3.723848         1.783521         1.984751
 C        -4.420595         1.616634         0.487329
 O        -3.436500         1.040668        -0.405370
 C        -2.425109         0.380077         0.423047
 H         0.896053         0.188981         0.241720
 H        -0.489311         2.612207         1.721028
 H        -1.476176         2.573408         0.163730
 H        -0.574132         0.497441         3.111767
 H        -1.743194        -0.767471         2.757115
 H        -4.409271         1.285588         2.750616
 H        -3.606515         2.812100         2.246413
 H        -5.354911         1.024290         0.535749
 H        -4.629563         2.655839         0.017761
 H        -2.702007        -0.686551         0.615660
