19
Iteration:  3621charge 0 multiplicity 1
 O         0.100848         0.082020        -0.181842
 C        -0.934130         0.507056         0.738100
 C        -1.284914         2.064608         1.088536
 C        -2.386347         1.208299         1.766393
 C        -1.333263         0.244744         2.297783
 C        -3.835546         1.667679         2.028362
 C        -4.299899         1.771046         0.562831
 O        -3.412822         0.874849        -0.352538
 C        -2.458534         0.340481         0.510670
 H        -0.408975        -0.138132        -0.974708
 H        -0.526775         2.624364         1.707464
 H        -1.395269         2.677606         0.207065
 H        -0.520946         0.516956         2.969592
 H        -1.468870        -0.758420         2.379794
 H        -4.497910         1.066850         2.673255
 H        -3.813569         2.686539         2.434714
 H        -5.177100         1.139689         0.432462
 H        -4.465147         2.840227         0.182113
 H        -2.815852        -0.658025         0.762048
