19
Iteration:  1565charge 0 multiplicity 1
 O         0.238201         0.091224         0.005038
 C        -0.906453         0.556070         0.729199
 C        -1.243706         1.908285         1.122210
 C        -2.384937         1.146831         1.697827
 C        -1.444220        -0.004512         2.174805
 C        -3.768765         1.698686         1.998101
 C        -4.333733         1.922072         0.633099
 O        -3.530883         1.074015        -0.386998
 C        -2.484001         0.389243         0.373606
 H        -0.000663        -0.783087        -0.281514
 H        -0.521876         2.447978         1.713192
 H        -1.523729         2.637605         0.277901
 H        -0.754297         0.336921         3.067350
 H        -1.719855        -1.121927         2.189783
 H        -4.171566         0.968995         2.644814
 H        -3.810178         2.655605         2.569881
 H        -5.366641         1.513738         0.514526
 H        -4.293499         2.955365         0.399588
 H        -2.838924        -0.689919         0.402686
