19
Iteration:  3780
 O         0.051146        -0.024196        -0.172473
 C        -1.056925         0.486000         0.624703
 C        -1.341496         1.969536         1.022872
 C        -2.353279         1.192104         1.793657
 C        -1.278385         0.298949         2.328632
 C        -3.810842         1.673893         1.992306
 C        -4.307556         1.581794         0.559945
 O        -3.275652         1.145231        -0.312367
 C        -2.520670         0.343040         0.550531
 H         0.623790         0.764290        -0.315740
 H        -0.452236         2.449805         1.505571
 H        -1.731158         2.659988         0.279660
 H        -0.508138         0.672360         2.978325
 H        -1.454203        -0.811907         2.651456
 H        -4.455226         1.013459         2.568816
 H        -3.882775         2.716538         2.401366
 H        -5.270110         0.979753         0.462312
 H        -4.596112         2.543498         0.090726
 H        -3.125876        -0.514540         0.795213
