19
Iteration:    55charge 0 multiplicity 1
 O         0.101769        -0.050051         0.040858
 C        -0.955566         0.507680         0.752926
 C        -1.161030         2.013990         1.004283
 C        -2.438069         1.191934         1.655574
 C        -1.365696         0.323187         2.286823
 C        -3.668697         1.749171         2.081456
 C        -4.416523         1.548632         0.512852
 O        -3.368052         1.146363        -0.423029
 C        -2.583255         0.283260         0.422698
 H        -0.107797         0.100843        -0.909439
 H        -0.635116         2.472243         1.802830
 H        -1.373457         2.684323         0.231080
 H        -0.742934         0.838679         2.988819
 H        -1.576709        -0.570472         2.770768
 H        -4.218064         1.289900         2.910100
 H        -3.559754         2.796747         2.326509
 H        -5.069934         0.704219         0.736305
 H        -5.004707         2.431539         0.168574
 H        -2.857503        -0.746714         0.621782
