19
Iteration:  2410charge 0 multiplicity 1
 O        -0.072714         0.106724        -0.248268
 C        -0.976363         0.568499         0.657565
 C        -1.316378         2.015434         1.061141
 C        -2.385586         1.086499         1.789457
 C        -1.212334         0.225390         2.278758
 C        -3.804216         1.753522         1.953201
 C        -4.245526         1.895396         0.479752
 O        -3.410562         0.793384        -0.256280
 C        -2.478956         0.244179         0.639441
 H         0.702382         0.615686         0.100762
 H        -0.500052         2.454643         1.602764
 H        -1.629853         2.647524         0.269688
 H        -0.473870         0.623832         3.059400
 H        -1.441147        -0.841138         2.592775
 H        -4.490122         1.107417         2.563789
 H        -3.754026         2.697717         2.523368
 H        -5.297680         1.630786         0.346878
 H        -4.133605         2.922783         0.145197
 H        -2.703075        -0.781940         0.684785
