19
Iteration:  1907
 O        -0.066361        -0.164195        -0.093795
 C        -1.021572         0.529956         0.677804
 C        -1.326943         2.035369         1.201344
 C        -2.386075         1.234554         1.753983
 C        -1.256863         0.151109         2.146343
 C        -3.792151         1.702831         2.012230
 C        -4.305686         1.640087         0.580120
 O        -3.273380         1.193659        -0.321548
 C        -2.472920         0.401178         0.409495
 H         0.645190         0.487716        -0.332364
 H        -0.553242         2.526616         1.832237
 H        -1.651075         2.868575         0.483377
 H        -0.415219         0.489864         2.836441
 H        -1.583853        -0.860622         2.598998
 H        -4.373366         1.126380         2.762560
 H        -3.870204         2.764852         2.258104
 H        -5.085029         0.914922         0.407896
 H        -4.598714         2.540665        -0.003749
 H        -2.811703        -0.716802         0.559317
