19
Iteration:   369
 O         0.094042         0.022654        -0.030817
 C        -0.997300         0.532297         0.717727
 C        -1.348235         2.003392         1.046178
 C        -2.459620         1.103028         1.752848
 C        -1.390850         0.171488         2.255511
 C        -3.740238         1.853779         2.020192
 C        -4.253213         1.617114         0.553909
 O        -3.291697         1.140509        -0.370946
 C        -2.489208         0.337942         0.413982
 H         0.217251        -0.916915        -0.331036
 H        -0.596458         2.714677         1.569887
 H        -1.740343         2.553234         0.189460
 H        -0.833570         0.677184         3.114017
 H        -1.778920        -0.900556         2.506823
 H        -4.461806         1.363857         2.715550
 H        -3.336666         2.758414         2.418329
 H        -5.001644         0.860480         0.749961
 H        -4.717984         2.512066         0.091632
 H        -2.914780        -0.696391         0.412551
