19
Iteration:  2183charge 0 multiplicity 1
 O         0.141345        -0.145154        -0.012164
 C        -0.947686         0.489271         0.622473
 C        -1.284560         2.042429         0.980617
 C        -2.369600         1.294743         1.771496
 C        -1.207900         0.276492         2.143340
 C        -3.864038         1.647120         2.108853
 C        -4.415999         1.721627         0.556729
 O        -3.423525         1.049907        -0.356313
 C        -2.541327         0.329299         0.543253
 H         0.799960         0.522237        -0.237133
 H        -0.445537         2.733999         1.378753
 H        -1.611042         2.585003         0.089011
 H        -0.655630         0.920017         2.860163
 H        -1.270759        -0.760429         2.290815
 H        -4.266253         0.756769         2.605643
 H        -4.058888         2.468900         2.774856
 H        -5.408596         1.399160         0.377468
 H        -4.480182         2.832333         0.367401
 H        -2.992946        -0.598143         0.802029
