19
Iteration:   527charge 0 multiplicity 1
 O         0.058958         0.012573        -0.058308
 C        -0.911867         0.529483         0.757364
 C        -1.243746         2.027914         1.113949
 C        -2.421210         1.117197         1.764228
 C        -1.364618         0.240128         2.271823
 C        -3.743300         1.694425         1.932247
 C        -4.184308         1.832130         0.506491
 O        -3.543352         0.900642        -0.338909
 C        -2.520091         0.304096         0.410847
 H         0.736732         0.670644        -0.419642
 H        -0.643558         2.451290         1.950014
 H        -1.505175         2.767939         0.375660
 H        -0.736596         0.609077         3.150463
 H        -1.721194        -0.759681         2.564404
 H        -4.393140         1.109643         2.594206
 H        -3.738447         2.739163         2.262527
 H        -5.267760         1.716461         0.370706
 H        -3.927516         2.804836         0.070309
 H        -2.866722        -0.721212         0.486846
