19
Iteration:  3580charge 0 multiplicity 1
 O         0.110740         0.193038        -0.072204
 C        -1.005311         0.525029         0.745543
 C        -1.413084         1.970478         1.052622
 C        -2.424918         1.113573         1.808174
 C        -1.051905         0.171602         2.219551
 C        -3.818311         1.713266         1.988106
 C        -4.206152         1.946633         0.461667
 O        -3.505147         0.839422        -0.336702
 C        -2.539489         0.183346         0.557476
 H        -0.197999         0.214826        -1.017742
 H        -0.686744         2.490992         1.634994
 H        -1.894459         2.552068         0.274746
 H        -0.419109         0.825799         2.949487
 H        -1.218833        -0.816788         2.694983
 H        -4.637452         1.262079         2.541528
 H        -3.590271         2.673131         2.402454
 H        -5.279980         1.781288         0.522584
 H        -3.870376         2.793198        -0.054585
 H        -2.862078        -0.834067         0.734710
