19
Iteration:  3635charge 0 multiplicity 1
 O         0.053860        -0.008324        -0.092767
 C        -0.919165         0.638262         0.710449
 C        -1.231187         2.034558         1.074290
 C        -2.391025         1.169283         1.784822
 C        -1.171614         0.235756         2.258440
 C        -3.792339         1.680116         2.022840
 C        -4.396451         1.644456         0.501065
 O        -3.433814         1.044109        -0.379774
 C        -2.488478         0.311058         0.525178
 H        -0.377162        -0.357644        -0.886573
 H        -0.654904         2.610803         1.769315
 H        -1.712692         2.740203         0.351034
 H        -0.593327         0.837541         3.012211
 H        -1.557992        -0.704974         2.681403
 H        -4.259558         0.817630         2.498527
 H        -3.970874         2.579721         2.594654
 H        -5.470532         1.409420         0.512947
 H        -4.432782         2.633254         0.116407
 H        -2.678070        -0.743465         0.519667
