19
Iteration:  2899charge 0 multiplicity 1
 O         0.087294        -0.095984        -0.070034
 C        -0.948773         0.539679         0.696358
 C        -1.303688         2.044648         0.978395
 C        -2.398493         1.197288         1.787109
 C        -1.208352         0.224816         2.219401
 C        -3.746564         1.740931         2.036836
 C        -4.392762         1.702040         0.599731
 O        -3.485837         1.032417        -0.359851
 C        -2.494015         0.371993         0.468123
 H         0.818535         0.517358        -0.203298
 H        -0.677254         2.623912         1.650075
 H        -1.800454         2.482348         0.097259
 H        -0.311502         0.567329         2.835335
 H        -1.455340        -0.844697         2.476296
 H        -4.292931         1.010263         2.738044
 H        -3.776400         2.704053         2.589307
 H        -5.283528         1.018742         0.739740
 H        -4.503495         2.676880         0.067769
 H        -2.910390        -0.642454         0.587920
