19
Iteration:  1444
 O         0.185988         0.072164        -0.034742
 C        -1.005519         0.493320         0.710940
 C        -1.296385         1.964900         1.224898
 C        -2.411667         1.113606         1.826838
 C        -1.287857         0.013118         2.143111
 C        -3.803399         1.744724         1.949289
 C        -4.240414         1.911050         0.492889
 O        -3.432960         1.069288        -0.360255
 C        -2.598730         0.363632         0.470394
 H        -0.074079        -0.227709        -0.917929
 H        -0.493192         2.302518         1.900234
 H        -1.471039         2.760423         0.476779
 H        -0.438393         0.361088         2.837098
 H        -1.531880        -1.067897         2.396437
 H        -4.537781         1.159791         2.412463
 H        -3.884759         2.666747         2.541340
 H        -5.244183         1.369696         0.343318
 H        -4.363343         2.918138         0.091006
 H        -2.756841        -0.797076         0.557746
