19
Iteration:   383
 O         0.127284         0.111772        -0.087430
 C        -0.956215         0.470590         0.748697
 C        -1.341792         1.926110         1.046642
 C        -2.423017         1.109234         1.780333
 C        -1.299511         0.126207         2.308293
 C        -3.760008         1.909155         1.954350
 C        -4.383470         1.667824         0.524115
 O        -3.289178         1.205707        -0.392241
 C        -2.528524         0.228761         0.505542
 H        -0.008638        -0.852799         0.008861
 H        -0.776125         2.304818         1.838780
 H        -1.680709         2.501887         0.169532
 H        -0.484432         0.373720         2.925358
 H        -1.575500        -0.910191         2.497619
 H        -4.385946         1.541932         2.727361
 H        -3.750345         2.996252         1.996712
 H        -5.158666         0.906041         0.605664
 H        -4.898405         2.598796         0.114682
 H        -2.848477        -0.825209         0.506784
