19
Iteration:  2229
 O        -0.022796         0.030940        -0.247514
 C        -0.998956         0.559683         0.693124
 C        -1.295718         1.959848         1.063137
 C        -2.407983         1.175614         1.835945
 C        -1.308950         0.182411         2.309931
 C        -3.712946         1.913627         2.095428
 C        -4.350479         1.592962         0.448722
 O        -3.280869         0.958363        -0.341359
 C        -2.511900         0.311832         0.571766
 H         0.718767         0.629926        -0.339605
 H        -0.598107         2.519876         1.719114
 H        -1.746371         2.662109         0.353699
 H        -0.418875         0.672353         2.804447
 H        -1.749329        -0.811088         2.611890
 H        -4.310024         1.376640         2.774873
 H        -3.664692         2.980923         2.394772
 H        -5.189238         0.966047         0.591518
 H        -4.800068         2.464891        -0.089895
 H        -2.817316        -0.692669         0.515536
