19
Iteration:  1062
 O         0.055641         0.017831        -0.107857
 C        -1.000207         0.454936         0.703215
 C        -1.294984         2.091288         1.048116
 C        -2.407296         1.184861         1.730786
 C        -1.350038         0.200852         2.305572
 C        -3.824360         1.626225         1.955451
 C        -4.283798         1.742303         0.612358
 O        -3.282424         1.160720        -0.399777
 C        -2.500057         0.311602         0.494054
 H         0.050789        -0.868775         0.227845
 H        -0.488985         2.456745         1.697272
 H        -1.476452         2.715234         0.117003
 H        -0.599778         0.490045         2.982991
 H        -1.724806        -0.770285         2.577758
 H        -4.297817         0.806704         2.550211
 H        -3.982835         2.539758         2.551749
 H        -5.259469         1.274832         0.408876
 H        -4.189496         2.846929         0.376948
 H        -2.947297        -0.726307         0.564055
