19
Iteration:   897charge 0 multiplicity 1
 O        -0.017119        -0.008248        -0.047146
 C        -0.964289         0.503821         0.752042
 C        -1.285264         1.964268         1.005589
 C        -2.430133         1.162316         1.757476
 C        -1.401423         0.291183         2.307729
 C        -3.775677         1.617347         2.020960
 C        -4.209612         1.791158         0.490272
 O        -3.342695         1.051680        -0.373110
 C        -2.427265         0.276648         0.509237
 H         0.136441         0.726438        -0.707320
 H        -0.626911         2.487929         1.688935
 H        -1.534949         2.589821         0.104627
 H        -0.633267         0.764702         2.946643
 H        -1.567458        -0.702495         2.634265
 H        -4.450007         0.960131         2.552455
 H        -3.815841         2.581452         2.543376
 H        -5.280148         1.435717         0.424045
 H        -4.247946         2.861240         0.232052
 H        -2.775302        -0.731800         0.323112
