19
Iteration:  1233charge 0 multiplicity 1
 O         0.164030        -0.035293         0.113663
 C        -0.990322         0.518558         0.637878
 C        -1.141148         1.972983         1.021530
 C        -2.404108         1.159126         1.742079
 C        -1.250019         0.136704         2.137738
 C        -3.891150         1.593660         2.054811
 C        -4.419374         1.887502         0.552397
 O        -3.375044         1.173714        -0.366660
 C        -2.562233         0.381027         0.469433
 H         0.031397        -0.633822        -0.665971
 H        -0.458186         2.355795         1.716270
 H        -1.614833         2.620138         0.225580
 H        -0.450486         0.672872         2.695037
 H        -1.574413        -0.877839         2.525444
 H        -4.314817         0.813526         2.578947
 H        -4.037216         2.383488         2.758807
 H        -5.371207         1.347220         0.215622
 H        -4.519965         2.934762         0.180880
 H        -2.885169        -0.661023         0.566787
