19
Iteration:  1576charge 0 multiplicity 1
 O         0.200084         0.137502        -0.010964
 C        -0.956460         0.428771         0.721569
 C        -1.109443         1.953023         1.102520
 C        -2.396452         1.116954         1.717526
 C        -1.354040         0.047128         2.187978
 C        -3.793456         1.680432         2.023683
 C        -4.468657         1.915613         0.622676
 O        -3.437572         1.098660        -0.388210
 C        -2.541874         0.371640         0.376910
 H         0.123033        -0.766008        -0.348339
 H        -0.519837         2.227368         1.948410
 H        -1.403652         2.721924         0.299762
 H        -0.639535         0.212739         3.115474
 H        -1.979399        -0.919470         2.310267
 H        -4.474594         1.097668         2.578337
 H        -3.689173         2.697089         2.467721
 H        -5.538473         1.599543         0.471558
 H        -4.345609         2.876377         0.210579
 H        -2.759895        -0.723022         0.431484
