19
Iteration:   724
 O         0.065908        -0.008538        -0.019888
 C        -1.039429         0.484885         0.739976
 C        -1.106449         1.953455         1.095779
 C        -2.352051         1.326667         1.698946
 C        -1.309627         0.153146         2.239665
 C        -3.799003         1.855418         1.947457
 C        -4.445082         1.504743         0.521202
 O        -3.349679         1.123241        -0.392151
 C        -2.578524         0.375840         0.542016
 H         0.821916         0.618481        -0.016804
 H        -0.320802         2.257005         1.797569
 H        -1.331898         2.501258         0.193134
 H        -0.431506         0.340528         2.968482
 H        -1.921878        -0.742586         2.280382
 H        -4.309190         1.159768         2.580697
 H        -3.765509         2.897147         2.170312
 H        -5.065351         0.598339         0.605585
 H        -5.011225         2.268850        -0.016473
 H        -3.040428        -0.621952         0.743157
