19
Iteration:   436charge 0 multiplicity 1
 O         0.077808         0.030273        -0.081717
 C        -0.959931         0.498397         0.737394
 C        -1.233279         2.092083         1.136742
 C        -2.331468         1.182093         1.685351
 C        -1.449447         0.178055         2.282308
 C        -3.685370         1.732667         2.015725
 C        -4.417687         1.681946         0.510798
 O        -3.353282         1.048972        -0.375787
 C        -2.451265         0.344317         0.441317
 H        -0.144018        -0.869076        -0.356954
 H        -0.622350         2.558322         1.928279
 H        -1.618854         2.754876         0.304044
 H        -0.980029         0.458966         3.254433
 H        -1.888588        -0.912857         2.451840
 H        -4.282909         1.175991         2.704747
 H        -3.627019         2.771982         2.238131
 H        -5.372358         1.210514         0.485180
 H        -4.496102         2.750590         0.122340
 H        -2.687426        -0.719835         0.602608
