19
Iteration:   613
 O         0.037134        -0.025817        -0.062183
 C        -0.955239         0.519359         0.738412
 C        -1.280204         2.027383         0.986104
 C        -2.397604         1.162675         1.798765
 C        -1.253630         0.320697         2.338270
 C        -3.862853         1.602984         1.993821
 C        -4.273096         1.810432         0.485017
 O        -3.392819         1.044327        -0.411341
 C        -2.492840         0.328506         0.467592
 H         0.110653        -0.916199         0.315646
 H        -0.535273         2.496587         1.646221
 H        -1.602960         2.690553         0.224071
 H        -0.539406         0.904188         2.987485
 H        -1.437061        -0.736860         2.496692
 H        -4.327466         0.710164         2.310606
 H        -4.210567         2.361900         2.674417
 H        -5.317209         1.721132         0.361175
 H        -4.009841         2.900230         0.391973
 H        -2.732000        -0.732627         0.600361
