19
Iteration:  3930charge 0 multiplicity 1
 O        -0.029148        -0.008953        -0.064392
 C        -0.924006         0.647610         0.783833
 C        -1.297436         2.098855         1.127316
 C        -2.422750         1.216652         1.788393
 C        -1.170110         0.216671         2.169697
 C        -3.783260         1.644238         1.954882
 C        -4.179581         1.790026         0.481857
 O        -3.518842         0.859795        -0.358595
 C        -2.456938         0.301684         0.603211
 H        -0.123020         0.443497        -0.944517
 H        -0.483236         2.554789         1.746709
 H        -1.507709         2.593265         0.174411
 H        -0.504761         0.669570         2.883267
 H        -1.453725        -0.864225         2.117597
 H        -4.410644         0.767941         2.178872
 H        -4.117209         2.461498         2.643253
 H        -5.297214         1.504937         0.458540
 H        -4.060450         2.916246         0.095622
 H        -2.943621        -0.699346         0.646703
