19
Iteration:  4478charge 0 multiplicity 1
 O         0.141548         0.089149         0.029861
 C        -0.972447         0.528376         0.740162
 C        -1.445004         1.960000         0.900617
 C        -2.415424         1.144631         1.845051
 C        -1.132926         0.263453         2.200795
 C        -3.796263         1.623993         2.037655
 C        -4.202137         1.842247         0.488133
 O        -3.510846         0.983098        -0.340357
 C        -2.567130         0.238810         0.508410
 H         0.842736         0.799446         0.022841
 H        -0.838425         2.667182         1.455724
 H        -1.728641         2.376704        -0.126122
 H        -0.208467         0.539422         2.832612
 H        -1.614022        -0.634929         2.604670
 H        -4.320928         0.700600         2.413333
 H        -4.069997         2.517419         2.531844
 H        -5.282665         1.544456         0.161613
 H        -4.138244         2.901995         0.114907
 H        -2.837347        -0.834210         0.448009
