19
Iteration:  2684
 O        -0.049677         0.049889        -0.242051
 C        -0.995846         0.534882         0.688428
 C        -1.364031         2.055099         1.132701
 C        -2.343332         1.154362         1.797731
 C        -1.069395         0.292204         2.273422
 C        -3.853351         1.669929         1.955457
 C        -4.221217         1.886803         0.427923
 O        -3.492080         0.830174        -0.286236
 C        -2.502634         0.196351         0.615503
 H         0.826466         0.383703         0.002533
 H        -0.780209         2.697684         1.771654
 H        -1.854537         2.616259         0.309376
 H        -0.237422         0.793095         2.867822
 H        -1.154920        -0.719127         2.608273
 H        -4.532827         1.051712         2.458020
 H        -3.780390         2.658963         2.433881
 H        -5.337983         1.816487         0.176092
 H        -3.774767         2.839131         0.354388
 H        -2.994959        -0.750873         0.904648
