19
Iteration:   723
 O         0.069552        -0.006321        -0.016795
 C        -1.045891         0.481694         0.738441
 C        -1.106349         1.948924         1.091709
 C        -2.351785         1.335235         1.704155
 C        -1.302333         0.143265         2.226735
 C        -3.807264         1.861912         1.947496
 C        -4.435236         1.502214         0.513516
 O        -3.344244         1.117407        -0.388607
 C        -2.591470         0.380565         0.545405
 H         0.839168         0.650008        -0.020468
 H        -0.329539         2.273429         1.816073
 H        -1.345990         2.485460         0.219849
 H        -0.441174         0.328450         2.983134
 H        -1.894878        -0.748807         2.264233
 H        -4.294700         1.188189         2.593134
 H        -3.798360         2.906734         2.166142
 H        -5.056852         0.596890         0.671425
 H        -5.014665         2.276464        -0.006859
 H        -3.061901        -0.618445         0.723513
