19
Iteration:   593charge 0 multiplicity 1
 O         0.045172         0.040072        -0.121669
 C        -1.003421         0.558192         0.671500
 C        -1.367876         2.028921         1.051205
 C        -2.405595         1.062693         1.697056
 C        -1.349957         0.318802         2.374582
 C        -3.796798         1.576722         2.011710
 C        -4.115075         1.960317         0.498705
 O        -3.386941         0.938614        -0.352378
 C        -2.526241         0.222847         0.466221
 H         0.544796        -0.577580         0.376400
 H        -0.766068         2.544180         1.831326
 H        -1.576452         2.601799         0.214016
 H        -0.643191         1.039952         2.939801
 H        -1.688186        -0.589442         2.860241
 H        -4.593940         1.142320         2.601845
 H        -3.617064         2.513719         2.543105
 H        -5.165095         1.691012         0.230068
 H        -3.952871         3.036640         0.329032
 H        -2.774163        -0.852549         0.532032
