19
Iteration:  1572
 O         0.229508         0.125042        -0.010951
 C        -0.957106         0.468347         0.745046
 C        -1.160407         1.921288         1.080156
 C        -2.385527         1.137290         1.709552
 C        -1.377768         0.015475         2.194312
 C        -3.780738         1.686345         2.004863
 C        -4.445169         1.931928         0.647728
 O        -3.471470         1.081623        -0.389424
 C        -2.508445         0.387473         0.363536
 H        -0.009409        -0.789518        -0.293647
 H        -0.516983         2.298531         1.920331
 H        -1.480600         2.680389         0.403858
 H        -0.779384         0.231468         3.062117
 H        -1.873097        -0.926394         2.242716
 H        -4.405138         0.971930         2.661016
 H        -3.767774         2.720950         2.389643
 H        -5.446853         1.589074         0.487844
 H        -4.305993         2.971075         0.271818
 H        -2.633090        -0.667200         0.450008
