19
Iteration:  4757
 O         0.177942         0.230086         0.082822
 C        -1.006353         0.543449         0.680063
 C        -1.378492         2.014800         0.884691
 C        -2.422684         1.119556         1.809130
 C        -1.204378         0.163126         2.237456
 C        -3.830357         1.588135         1.997690
 C        -4.198979         1.920867         0.536896
 O        -3.513825         0.950826        -0.341894
 C        -2.529503         0.221448         0.490386
 H         0.472933        -0.675273         0.279924
 H        -0.547061         2.524073         1.356434
 H        -1.755573         2.516420        -0.055123
 H        -0.382205         0.568708         2.690311
 H        -1.579882        -0.879407         2.460789
 H        -4.429740         0.777857         2.375846
 H        -4.030725         2.500922         2.638640
 H        -5.249501         1.765277         0.188120
 H        -3.979468         2.958713         0.289424
 H        -2.775510        -0.845057         0.425857
