19
Iteration:  4705
 O         0.022311         0.113874        -0.049661
 C        -0.977355         0.650366         0.708627
 C        -1.236662         2.065793         1.063400
 C        -2.361101         1.158823         1.842686
 C        -1.273282         0.183117         2.269275
 C        -3.797848         1.619656         1.980516
 C        -4.287452         1.654352         0.441805
 O        -3.354946         0.977670        -0.356280
 C        -2.530146         0.341846         0.513188
 H        -0.344991        -0.563391        -0.660848
 H        -0.528889         2.682531         1.672223
 H        -1.711320         2.691443         0.242855
 H        -0.668144         0.555519         3.132939
 H        -1.518216        -0.857732         2.320268
 H        -4.360532         0.984676         2.681834
 H        -4.003917         2.618271         2.399272
 H        -5.268470         1.279127         0.088610
 H        -4.248296         2.688530         0.129670
 H        -2.929338        -0.670427         0.791811
