19
Iteration:   345
 O         0.082219        -0.034832         0.065539
 C        -0.974502         0.549341         0.742642
 C        -1.157078         2.016294         1.027465
 C        -2.334889         1.310751         1.738614
 C        -1.297803         0.183751         2.218505
 C        -3.813818         1.699888         1.968383
 C        -4.420701         1.633814         0.556520
 O        -3.383016         1.145597        -0.427752
 C        -2.523118         0.303760         0.458115
 H        -0.084264        -0.810881        -0.429582
 H        -0.558728         2.626808         1.829229
 H        -1.342539         2.753461         0.226370
 H        -0.512253         0.575918         2.983540
 H        -1.777693        -0.837516         2.441622
 H        -4.258825         0.849927         2.588861
 H        -3.884527         2.675342         2.515612
 H        -5.377336         1.043650         0.480518
 H        -4.620877         2.658668         0.302094
 H        -2.978567        -0.713742         0.468119
