19
Iteration:  2420
 O        -0.045806         0.082265        -0.209160
 C        -0.961868         0.599520         0.742935
 C        -1.322642         2.052007         0.991000
 C        -2.423129         1.139004         1.868038
 C        -1.233113         0.215833         2.246680
 C        -3.786197         1.683967         2.060434
 C        -4.219610         1.869386         0.452732
 O        -3.469860         0.838229        -0.234159
 C        -2.448459         0.197232         0.508414
 H         0.898854         0.279049        -0.305270
 H        -0.642411         2.670391         1.578073
 H        -1.825005         2.643041         0.277629
 H        -0.522425         0.778459         2.955370
 H        -1.486185        -0.912850         2.381796
 H        -4.558910         1.123547         2.638588
 H        -3.653501         2.710392         2.341442
 H        -5.260737         1.841332         0.133377
 H        -3.817634         2.812463         0.049395
 H        -2.628999        -0.811148         0.736981
