19
Iteration:  4326
 O         0.204102         0.028941        -0.005743
 C        -0.942226         0.498882         0.700212
 C        -1.107774         2.098316         1.062715
 C        -2.313983         1.248679         1.735569
 C        -1.254324         0.152699         2.258467
 C        -3.858701         1.726589         1.995614
 C        -4.551605         1.517468         0.537552
 O        -3.500165         1.159678        -0.408525
 C        -2.579520         0.367844         0.474775
 H         0.466150        -0.914690         0.040280
 H        -0.245493         2.322359         1.649115
 H        -1.258072         2.837040         0.193241
 H        -0.484795         0.702733         2.818828
 H        -1.560152        -0.815668         2.510779
 H        -4.375045         1.207871         2.845226
 H        -3.909440         2.736378         2.343130
 H        -5.315700         0.737793         0.434308
 H        -4.838591         2.485658         0.131641
 H        -2.922159        -0.675482         0.614797
