19
Iteration:  3665
 O         0.119237        -0.133914         0.062735
 C        -0.979041         0.557836         0.644904
 C        -1.338264         2.070597         0.912933
 C        -2.432313         1.212582         1.773064
 C        -1.240978         0.297874         2.135266
 C        -3.852507         1.593755         2.144799
 C        -4.332158         1.559343         0.624356
 O        -3.258433         1.215223        -0.400844
 C        -2.536906         0.392321         0.495365
 H        -0.011335        -0.153938        -0.903140
 H        -0.760035         2.803265         1.499185
 H        -1.736241         2.652591         0.097007
 H        -0.424774         0.712517         2.771984
 H        -1.519898        -0.631785         2.466498
 H        -4.363175         0.729414         2.612636
 H        -4.042728         2.486257         2.729080
 H        -5.218777         0.886402         0.613274
 H        -4.664927         2.610247         0.316537
 H        -2.951746        -0.647369         0.577149
