19
Iteration:   442charge 0 multiplicity 1
 O         0.079750        -0.016593        -0.069033
 C        -0.930679         0.561158         0.767484
 C        -1.255613         2.079729         1.093745
 C        -2.360165         1.148565         1.690271
 C        -1.454441         0.157073         2.303708
 C        -3.720593         1.687232         1.982893
 C        -4.340218         1.703662         0.508234
 O        -3.380601         1.094626        -0.375851
 C        -2.444176         0.342057         0.449058
 H        -0.091730        -0.844510        -0.510925
 H        -0.669133         2.727609         1.793990
 H        -1.506076         2.744839         0.300333
 H        -0.843277         0.705990         3.048667
 H        -1.758941        -0.820476         2.513708
 H        -4.324986         1.112741         2.761759
 H        -3.698459         2.772398         2.289959
 H        -5.353696         1.140789         0.626417
 H        -4.560572         2.732895         0.308214
 H        -2.778821        -0.715101         0.571900
