19
Iteration:  2538
 O        -0.038082        -0.021210        -0.269281
 C        -0.921054         0.503758         0.742787
 C        -1.196135         2.022105         1.069446
 C        -2.289744         1.240118         1.835489
 C        -1.161583         0.124598         2.324593
 C        -3.776723         1.920695         1.972785
 C        -4.547310         1.426480         0.487756
 O        -3.402243         1.128940        -0.352954
 C        -2.505758         0.378883         0.570559
 H         0.780979         0.421794        -0.004410
 H        -0.529978         2.552206         1.882212
 H        -1.485584         2.740481         0.293108
 H        -0.538689         0.573692         3.049758
 H        -1.666766        -0.847715         2.582576
 H        -4.298155         1.379071         2.782940
 H        -3.637402         2.976545         2.019997
 H        -5.146845         0.494057         0.927334
 H        -5.146304         2.226326        -0.008228
 H        -2.984922        -0.681839         0.515111
