19
Iteration:  3083
 O         0.055724        -0.127846        -0.159341
 C        -0.940903         0.487482         0.687602
 C        -1.309614         2.055204         0.939833
 C        -2.438218         1.224404         1.771126
 C        -1.211082         0.334319         2.285317
 C        -3.912098         1.529329         2.072117
 C        -4.254309         1.732001         0.565202
 O        -3.366143         1.149658        -0.345156
 C        -2.522494         0.340520         0.548845
 H         0.872680         0.369480        -0.099103
 H        -0.452281         2.581932         1.345711
 H        -1.575978         2.461005        -0.020893
 H        -0.750132         1.020129         2.931982
 H        -1.394198        -0.724109         2.618317
 H        -4.271890         0.628431         2.542731
 H        -4.155542         2.276813         2.766246
 H        -5.356638         1.346013         0.423366
 H        -4.333895         2.858889         0.518923
 H        -3.028901        -0.652388         0.733475
