19
Iteration:  4558
 O        -0.044179         0.065772        -0.150244
 C        -0.981279         0.563798         0.724681
 C        -1.353445         2.024376         1.037025
 C        -2.410736         1.254660         1.798206
 C        -1.275431         0.231472         2.208168
 C        -3.831125         1.775964         2.032904
 C        -4.341103         1.502495         0.467143
 O        -3.253508         1.045316        -0.314348
 C        -2.413838         0.283107         0.541972
 H         0.842811         0.147599         0.284997
 H        -0.475061         2.421278         1.718777
 H        -1.610465         2.763420         0.282386
 H        -0.551130         0.492915         2.997765
 H        -1.456991        -0.847092         2.316826
 H        -4.340706         1.144806         2.833066
 H        -4.221455         2.784795         2.427577
 H        -5.249525         0.830783         0.279716
 H        -4.457148         2.542804         0.022800
 H        -2.911861        -0.729230         0.677724
