19
Iteration:  3702charge 0 multiplicity 1
 O         0.094447         0.022475         0.015356
 C        -0.938353         0.517498         0.705804
 C        -1.150319         1.984885         1.057599
 C        -2.364598         1.233401         1.677264
 C        -1.272144         0.190394         2.166864
 C        -3.785387         1.741232         1.998380
 C        -4.425679         1.597926         0.652670
 O        -3.452035         1.052848        -0.396320
 C        -2.575887         0.364188         0.490372
 H         0.573383         0.743728        -0.466927
 H        -0.455778         2.361531         1.815569
 H        -1.366619         2.546125         0.113371
 H        -0.566543         0.765392         2.746870
 H        -1.594654        -0.841761         2.554360
 H        -4.272638         1.126231         2.752189
 H        -3.872999         2.821314         2.251293
 H        -5.282885         0.856813         0.658513
 H        -4.894163         2.485278         0.254066
 H        -2.874958        -0.669214         0.563479
