19
Iteration:   819
 O         0.069449         0.084325        -0.172407
 C        -0.871543         0.555832         0.785304
 C        -1.315267         1.988484         1.081035
 C        -2.410843         1.146837         1.670247
 C        -1.378746         0.269941         2.356823
 C        -3.786872         1.683759         1.972369
 C        -4.171552         1.868521         0.478244
 O        -3.522008         0.858790        -0.307671
 C        -2.514844         0.273020         0.453401
 H         0.933325        -0.214227         0.289210
 H        -0.692535         2.629172         1.762750
 H        -1.509142         2.427080         0.139121
 H        -0.725077         0.754120         3.099871
 H        -1.749333        -0.644534         2.681735
 H        -4.279614         0.844324         2.438532
 H        -3.774017         2.602781         2.600580
 H        -5.276328         1.823509         0.246155
 H        -3.856342         2.920006         0.312034
 H        -2.918432        -0.717501         0.668484
