19
Iteration:  4630charge 0 multiplicity 1
 O         0.139597         0.015997         0.065499
 C        -0.973047         0.573490         0.673510
 C        -1.218922         2.026140         1.012420
 C        -2.368573         1.298203         1.726482
 C        -1.321070         0.138115         2.155878
 C        -3.753627         1.769100         1.997432
 C        -4.407764         1.485683         0.542064
 O        -3.457812         1.075144        -0.328898
 C        -2.521799         0.387011         0.459696
 H         0.856563         0.625295        -0.127789
 H        -0.390100         2.470005         1.535979
 H        -1.611578         2.724415         0.303725
 H        -0.733070         0.298475         3.107980
 H        -1.710550        -0.841829         2.235022
 H        -4.243410         1.070217         2.701920
 H        -3.874266         2.689878         2.487155
 H        -5.099501         0.681981         0.711772
 H        -4.893074         2.271386        -0.021627
 H        -2.909006        -0.620023         0.604924
