19
Iteration:  1952charge 0 multiplicity 1
 O        -0.006071         0.187256        -0.200632
 C        -1.068733         0.369443         0.715229
 C        -1.207800         1.940732         1.122998
 C        -2.334182         1.220386         1.774820
 C        -1.381402         0.142949         2.194345
 C        -3.751966         1.792947         1.965435
 C        -4.332018         1.629026         0.529539
 O        -3.270798         1.091410        -0.305259
 C        -2.563922         0.324692         0.523387
 H         0.711330        -0.377932         0.137962
 H        -0.326812         2.323752         1.647967
 H        -1.399338         2.736696         0.304019
 H        -0.506533         0.566462         2.878158
 H        -1.815055        -0.744051         2.779177
 H        -4.399537         1.184925         2.638813
 H        -3.673332         2.786126         2.339946
 H        -5.225787         0.995404         0.470739
 H        -4.607471         2.682347         0.345836
 H        -3.125451        -0.691415         0.768025
