19
Iteration:  2578
 O        -0.023727        -0.015638        -0.101895
 C        -1.042755         0.520457         0.672105
 C        -1.277584         2.077744         1.032194
 C        -2.344023         1.260253         1.725164
 C        -1.316955         0.183714         2.281512
 C        -3.621311         1.876179         2.102609
 C        -4.369467         1.444292         0.548752
 O        -3.380693         1.094749        -0.381502
 C        -2.493847         0.279182         0.458065
 H         0.684794         0.638037        -0.260017
 H        -0.415513         2.400033         1.631268
 H        -1.578689         2.832195         0.305804
 H        -0.472253         0.522803         2.992438
 H        -1.717674        -0.815826         2.422252
 H        -4.181798         1.376754         2.925949
 H        -3.619657         2.989222         2.412857
 H        -4.979712         0.605348         0.808200
 H        -5.176505         2.093971         0.111923
 H        -2.960659        -0.653759         0.666675
