19
Iteration:  3081charge 0 multiplicity 1
 O         0.052371        -0.135062        -0.146556
 C        -0.956248         0.498193         0.683052
 C        -1.307221         2.059681         0.925684
 C        -2.438702         1.214032         1.762437
 C        -1.184407         0.328686         2.273680
 C        -3.917231         1.533695         2.070574
 C        -4.264815         1.737601         0.593852
 O        -3.360168         1.143817        -0.349080
 C        -2.517531         0.342851         0.553450
 H         0.878887         0.375286        -0.058081
 H        -0.463579         2.623820         1.423340
 H        -1.590984         2.520845        -0.055282
 H        -0.743661         1.067681         2.966413
 H        -1.442430        -0.777194         2.630289
 H        -4.300941         0.569173         2.499116
 H        -4.199960         2.358963         2.791192
 H        -5.350261         1.343973         0.369086
 H        -4.269339         2.859368         0.502900
 H        -3.036676        -0.705244         0.638279
