19
Iteration:  2081
 O        -0.089822         0.144860        -0.190083
 C        -0.994234         0.542201         0.718989
 C        -1.346427         2.078807         1.139295
 C        -2.377768         1.170013         1.729696
 C        -1.243952         0.225911         2.299932
 C        -3.752058         1.725020         2.063141
 C        -4.137864         1.786932         0.432374
 O        -3.439468         0.882797        -0.300250
 C        -2.513532         0.163092         0.437691
 H         0.365211        -0.666637         0.146239
 H        -0.566196         2.530371         1.834276
 H        -1.759942         2.934307         0.452400
 H        -0.560595         0.644256         2.944575
 H        -1.429018        -0.791710         2.507616
 H        -4.267376         1.110661         2.897061
 H        -3.674650         2.821824         2.268544
 H        -5.271178         1.718277         0.253902
 H        -3.716162         2.786565         0.270752
 H        -2.748572        -0.880049         0.543545
