19
Iteration:  3667charge 0 multiplicity 1
 O         0.121119        -0.136665         0.065232
 C        -0.949955         0.567729         0.622937
 C        -1.348974         2.064917         0.910879
 C        -2.421411         1.235471         1.762889
 C        -1.257654         0.283210         2.150407
 C        -3.848455         1.587892         2.165410
 C        -4.340248         1.566959         0.610185
 O        -3.263301         1.220325        -0.399498
 C        -2.543462         0.381162         0.502526
 H         0.002563        -0.090777        -0.924427
 H        -0.732514         2.758132         1.457644
 H        -1.752893         2.636081         0.046981
 H        -0.486601         0.706038         2.841784
 H        -1.522213        -0.653839         2.523903
 H        -4.371121         0.758370         2.648213
 H        -4.061089         2.489409         2.719869
 H        -5.190843         0.832800         0.637111
 H        -4.633504         2.572605         0.333167
 H        -2.921935        -0.634667         0.499936
