19
Iteration:  2144
 O         0.046110        -0.018166         0.048828
 C        -0.956811         0.570009         0.746716
 C        -1.337091         1.991054         0.919271
 C        -2.387198         1.133954         1.690383
 C        -1.226596         0.303601         2.215101
 C        -3.728730         1.619404         2.095378
 C        -4.260314         1.866516         0.620731
 O        -3.488018         0.952132        -0.397585
 C        -2.479868         0.303085         0.433093
 H         0.121280         0.455646        -0.826001
 H        -0.689103         2.508608         1.553751
 H        -1.970530         2.519476         0.207975
 H        -0.742648         0.883482         3.010889
 H        -1.299743        -0.825754         2.444917
 H        -4.328896         0.853912         2.602640
 H        -3.770477         2.613042         2.642154
 H        -5.296126         1.465857         0.490509
 H        -4.064193         2.846122         0.213166
 H        -2.846679        -0.765075         0.728537
