19
Iteration:  2380charge 0 multiplicity 1
 O        -0.092133         0.115681        -0.212237
 C        -1.003789         0.481017         0.726633
 C        -1.244692         2.011357         1.022398
 C        -2.326275         1.195022         1.836543
 C        -1.256197         0.225471         2.281443
 C        -3.758639         1.706437         2.065798
 C        -4.361582         1.718818         0.449025
 O        -3.351448         0.931803        -0.358686
 C        -2.516722         0.285098         0.598382
 H         0.656632         0.720370        -0.042079
 H        -0.297658         2.376362         1.470901
 H        -1.658481         2.529428         0.121557
 H        -0.500623         0.665088         2.935058
 H        -1.615462        -0.709436         2.577381
 H        -4.300281         1.181304         2.866765
 H        -3.659329         2.810788         2.355757
 H        -5.301781         1.142548         0.327038
 H        -4.185651         2.799682         0.161320
 H        -2.910130        -0.803674         0.728538
