19
Iteration:  3455
 O         0.105827         0.038660        -0.113273
 C        -1.025940         0.553580         0.650293
 C        -1.242073         2.032011         1.140443
 C        -2.340220         1.238167         1.818869
 C        -1.332518         0.141663         2.293142
 C        -3.726339         1.939480         1.933908
 C        -4.405230         1.359624         0.659320
 O        -3.347715         1.088695        -0.357973
 C        -2.523609         0.385531         0.420048
 H        -0.101312         0.024407        -1.072361
 H        -0.325182         2.333379         1.729889
 H        -1.450363         2.777273         0.302211
 H        -0.690463         0.355106         3.186490
 H        -1.954041        -0.789742         2.442092
 H        -4.204166         1.767311         2.920222
 H        -3.674193         3.056648         1.822078
 H        -4.926369         0.360290         0.827760
 H        -5.305194         1.900441         0.167669
 H        -2.817379        -0.660263         0.358984
