19
Iteration:  2821
 O         0.015038         0.040815        -0.115631
 C        -0.977586         0.544112         0.669342
 C        -1.143085         1.998951         1.078366
 C        -2.378549         1.265181         1.758106
 C        -1.273268         0.279921         2.215885
 C        -3.748372         1.781825         1.957362
 C        -4.415326         1.484955         0.589743
 O        -3.412675         1.104249        -0.298532
 C        -2.481552         0.316385         0.498520
 H        -0.175074        -0.838097        -0.512892
 H        -0.411431         2.513383         1.702466
 H        -1.408899         2.816552         0.387634
 H        -0.556936         0.754342         2.883396
 H        -1.750201        -0.709398         2.652981
 H        -4.365154         1.076779         2.611160
 H        -3.647414         2.822007         2.284274
 H        -5.012687         0.537341         0.668578
 H        -4.971375         2.359883         0.156651
 H        -2.800586        -0.742528         0.716620
