19
Iteration:  4520
 O         0.412022        -0.243898         0.448336
 C        -0.819630         0.367585         0.916595
 C        -1.936586         0.697653        -0.042089
 C        -2.478738         0.965652         1.441177
 C        -1.155548         1.687746         1.743938
 C        -3.934097         0.798876         1.869707
 O        -4.182732        -0.578969         1.762932
 C        -2.963618        -1.348508         1.368499
 C        -1.803709        -0.424204         1.860717
 H         0.989881        -0.414890         1.318964
 H        -1.961579         1.672828        -0.548756
 H        -2.402901        -0.147327        -0.602184
 H        -0.925464         2.618851         1.252244
 H        -0.930749         1.709745         2.800558
 H        -4.188071         1.155688         2.904930
 H        -4.574193         1.352985         1.131265
 H        -3.038365        -2.295613         1.891286
 H        -2.843574        -1.513962         0.293097
 H        -1.358078        -0.625611         2.877594
