19
Iteration:   393charge 0 multiplicity 1
 O         0.452256        -0.201088         0.379353
 C        -0.784264         0.332506         0.934168
 C        -1.845637         0.963809        -0.020561
 C        -2.459881         0.857717         1.487036
 C        -1.104826         1.562182         1.977413
 C        -3.978718         0.825853         1.729811
 O        -4.234893        -0.591989         1.763724
 C        -3.038707        -1.334177         1.387909
 C        -1.845323        -0.509221         1.792260
 H         0.640265        -0.978246         0.821411
 H        -1.681170         2.063151        -0.309595
 H        -2.407416         0.237359        -0.698428
 H        -0.911097         2.582804         1.527969
 H        -0.711820         1.454452         2.943912
 H        -4.166722         1.262485         2.696002
 H        -4.510921         1.368383         0.961214
 H        -3.246171        -2.291966         1.849685
 H        -2.885585        -1.514334         0.219958
 H        -1.575080        -0.594556         2.846273
