19
Iteration:   292charge 0 multiplicity 1
 O         0.310877        -0.243169         0.540394
 C        -0.878042         0.291027         0.915574
 C        -1.950284         0.821710         0.007174
 C        -2.426899         1.006217         1.500593
 C        -1.049353         1.528569         1.855304
 C        -3.897865         0.845390         1.932312
 O        -4.203940        -0.571106         1.422731
 C        -2.942316        -1.368020         1.470969
 C        -1.822810        -0.417402         1.833236
 H         0.767274         0.289225         0.020303
 H        -1.686672         1.858742        -0.595406
 H        -2.565860         0.106043        -0.561130
 H        -0.793901         2.460204         1.347462
 H        -0.655606         1.481551         2.890842
 H        -3.922779         0.849263         2.985636
 H        -4.677752         1.482042         1.488606
 H        -3.020264        -2.269770         2.152493
 H        -2.767895        -1.862998         0.432371
 H        -1.449346        -0.573406         2.847205
