19
Iteration:  2293charge 0 multiplicity 1
 O         0.470147        -0.078764         0.468873
 C        -0.762640         0.310610         0.858436
 C        -1.945704         0.867284         0.039628
 C        -2.411010         0.914474         1.523549
 C        -1.054827         1.452349         1.940321
 C        -3.886062         0.842618         1.999293
 O        -4.278639        -0.460442         1.459555
 C        -3.139529        -1.463558         1.357556
 C        -1.858736        -0.551119         1.718363
 H         1.072543         0.275211         1.136741
 H        -1.987807         1.944657        -0.377381
 H        -2.477145         0.161463        -0.597504
 H        -0.648041         2.405218         1.668142
 H        -0.532490         1.137177         2.931343
 H        -3.872873         0.790144         3.118614
 H        -4.618342         1.550643         1.629167
 H        -3.295774        -2.329719         1.976495
 H        -3.179092        -1.740575         0.295747
 H        -1.492572        -0.749702         2.707431
