19
Iteration:   713charge 0 multiplicity 1
 O         0.429051        -0.097403         0.627321
 C        -0.843816         0.271080         0.858446
 C        -1.886260         1.007396         0.078793
 C        -2.458475         0.957078         1.563053
 C        -0.958736         1.413581         1.898993
 C        -3.935549         0.824357         1.781125
 O        -4.203076        -0.597970         1.772572
 C        -3.108994        -1.304764         1.221459
 C        -1.858021        -0.517419         1.631634
 H         0.643145        -1.119069         0.318258
 H        -1.671091         2.053444        -0.363867
 H        -2.296738         0.394186        -0.692661
 H        -0.736124         2.334084         1.362572
 H        -0.723546         1.127338         3.025156
 H        -4.353314         1.162243         2.811912
 H        -4.570343         1.283313         1.041631
 H        -3.174300        -2.328914         1.577527
 H        -3.286039        -1.367410         0.152933
 H        -1.513493        -0.936241         2.581441
