19
Iteration:   186
 O         0.517769        -0.030454         0.573657
 C        -0.791090         0.382054         0.883564
 C        -1.923129         0.733587        -0.070863
 C        -2.484579         0.883292         1.472706
 C        -1.009292         1.547115         1.711273
 C        -3.881910         0.854035         2.009815
 O        -4.243790        -0.547229         1.615032
 C        -3.181576        -1.380761         1.405814
 C        -1.862683        -0.535533         1.706779
 H         0.773262        -0.520694         1.457727
 H        -1.718125         1.512627        -0.680722
 H        -2.379992        -0.117525        -0.518598
 H        -1.074533         2.535045         1.112042
 H        -0.548905         1.613772         2.673387
 H        -3.834368         1.028880         3.213866
 H        -4.659476         1.500075         1.583697
 H        -3.232411        -2.168012         2.140589
 H        -3.240592        -1.857240         0.422222
 H        -1.522901        -0.795900         2.743363
