19
Iteration:  1331
 O         0.412143        -0.173172         0.499176
 C        -0.874507         0.301568         0.900342
 C        -1.837920         1.013838         0.086780
 C        -2.410168         0.919157         1.431465
 C        -1.170113         1.432336         2.106017
 C        -3.817490         0.857686         1.739447
 O        -4.153424        -0.549327         1.876455
 C        -3.125880        -1.371077         1.114178
 C        -1.901038        -0.625868         1.586960
 H         1.077983         0.118128         1.083428
 H        -1.641827         2.028556        -0.164143
 H        -2.395274         0.593620        -0.769709
 H        -0.874313         2.561821         1.806463
 H        -1.005249         1.147660         3.112558
 H        -3.985042         1.248916         2.820040
 H        -4.430047         1.463873         1.015321
 H        -3.031629        -2.451238         1.472265
 H        -3.294759        -1.382395         0.027377
 H        -1.581608        -0.821716         2.610457
