19
Iteration:   180charge 0 multiplicity 1
 O         0.525842        -0.043737         0.589238
 C        -0.788189         0.339423         0.875488
 C        -1.967456         0.752378        -0.041448
 C        -2.472819         0.867682         1.441592
 C        -1.104488         1.583117         1.725526
 C        -3.830897         0.905540         2.007199
 O        -4.244568        -0.518014         1.636700
 C        -3.122947        -1.424163         1.387284
 C        -1.878991        -0.560971         1.689089
 H         0.777190        -0.676083         1.422088
 H        -1.716462         1.700404        -0.689440
 H        -2.403354        -0.125623        -0.637015
 H        -1.010396         2.551499         1.273792
 H        -0.572775         1.627589         2.713218
 H        -3.777782         1.030780         3.031517
 H        -4.598892         1.536640         1.544701
 H        -3.121633        -2.268805         2.153976
 H        -3.277159        -2.007724         0.448021
 H        -1.476884        -0.642887         2.704890
