19
Iteration:  2203charge 0 multiplicity 1
 O         0.406548        -0.263360         0.411682
 C        -0.788485         0.301057         0.990414
 C        -1.895770         1.072699         0.001828
 C        -2.460685         1.034851         1.471837
 C        -0.966073         1.471469         2.043187
 C        -4.026034         0.812573         1.807229
 O        -4.230319        -0.685222         1.851742
 C        -2.936317        -1.356273         1.139930
 C        -1.922930        -0.414109         1.697516
 H         0.830884        -0.870543         1.034513
 H        -1.778575         2.071775        -0.334856
 H        -2.510772         0.435963        -0.721019
 H        -0.479519         2.461777         1.668523
 H        -0.645493         1.138837         3.034487
 H        -4.526502         1.299256         2.626340
 H        -4.425083         1.167812         0.851907
 H        -2.919328        -2.344197         1.568917
 H        -3.184428        -1.388072         0.099625
 H        -1.891579        -0.579108         2.741374
