19
Iteration:  4043charge 0 multiplicity 1
 O         0.388753        -0.303916         0.490966
 C        -0.803132         0.331682         0.812548
 C        -1.938422         0.807588        -0.055078
 C        -2.533947         0.986382         1.462879
 C        -1.111617         1.638802         1.798077
 C        -4.056761         0.807072         1.620161
 O        -4.098539        -0.614706         1.984779
 C        -2.916196        -1.348038         1.501125
 C        -1.809575        -0.411397         1.751185
 H         1.137209         0.474123         0.651283
 H        -1.802627         1.773661        -0.683750
 H        -2.562667         0.172948        -0.648733
 H        -0.806201         2.695155         1.530958
 H        -0.952924         1.395851         2.859885
 H        -4.516453         1.360691         2.429471
 H        -4.536339         0.813484         0.602054
 H        -2.892083        -2.065275         2.353012
 H        -3.128831        -1.681424         0.494168
 H        -1.213094        -0.708391         2.721845
