19
Iteration:  1820charge 0 multiplicity 1
 O         0.446153        -0.114375         0.613650
 C        -0.858245         0.292072         0.903842
 C        -1.903431         0.884118         0.017921
 C        -2.473940         0.953326         1.504160
 C        -1.004346         1.414377         1.865928
 C        -3.834559         0.787627         1.959247
 O        -4.261976        -0.551263         1.577013
 C        -3.122060        -1.335490         1.275042
 C        -1.862344        -0.481162         1.753925
 H         0.624666         0.313174        -0.374005
 H        -1.509756         1.862524        -0.318071
 H        -2.418511         0.275199        -0.644298
 H        -0.823116         2.491790         1.462380
 H        -0.722801         1.156798         2.828804
 H        -3.787852         0.901577         3.055677
 H        -4.613549         1.416217         1.581220
 H        -3.062130        -2.334349         1.749454
 H        -3.166531        -1.589944         0.148470
 H        -1.430667        -0.736159         2.708430
