19
Iteration:  4567charge 0 multiplicity 1
 O         0.526793         0.065301         0.574517
 C        -0.802681         0.243092         0.873685
 C        -1.947579         0.769097        -0.174233
 C        -2.442869         0.860884         1.265851
 C        -1.193472         1.500798         1.749364
 C        -3.836195         0.882533         1.889840
 O        -4.206783        -0.508483         1.850075
 C        -3.146207        -1.425753         1.517115
 C        -1.853167        -0.648036         1.695122
 H         1.035283         0.291099         1.327338
 H        -1.476993         1.692125        -0.553746
 H        -2.369086         0.041110        -0.907802
 H        -0.983203         2.554520         1.439297
 H        -0.814407         1.352909         2.796365
 H        -3.669860         1.231098         2.966446
 H        -4.590071         1.665023         1.384017
 H        -3.155904        -2.212554         2.248823
 H        -3.371052        -1.797910         0.498985
 H        -1.725848        -0.632539         2.806036
