19
Iteration:  2811charge 0 multiplicity 1
 O         0.368928        -0.204409         0.586577
 C        -0.821190         0.301519         0.936973
 C        -1.926127         0.945054        -0.022508
 C        -2.498737         0.870371         1.356053
 C        -1.057006         1.534812         1.852810
 C        -3.952549         0.892802         1.760199
 O        -4.141210        -0.626005         1.855861
 C        -2.923265        -1.400679         1.347268
 C        -1.873352        -0.427563         1.783621
 H         0.418546        -0.296418        -0.409314
 H        -1.702262         1.954851        -0.542394
 H        -2.333758         0.257776        -0.735293
 H        -0.712726         2.620385         1.734630
 H        -0.889076         1.363921         2.873379
 H        -4.386954         1.395807         2.663695
 H        -4.510127         1.218275         0.857837
 H        -3.010154        -2.409590         1.849373
 H        -2.976552        -1.661278         0.262269
 H        -1.578161        -0.471827         2.812820
