19
Iteration:  2062charge 0 multiplicity 1
 O         0.255410        -0.246262         0.348792
 C        -0.844316         0.287718         0.969054
 C        -1.947939         0.973051         0.168743
 C        -2.451569         0.931855         1.617533
 C        -0.945054         1.522221         1.893050
 C        -3.905258         0.712062         1.937486
 O        -4.161616        -0.533752         1.321363
 C        -2.991563        -1.348286         1.331543
 C        -1.875273        -0.426096         1.898464
 H         1.154078        -0.168195         0.935327
 H        -1.554854         1.905793        -0.217327
 H        -2.624173         0.563915        -0.653419
 H        -0.853527         2.531886         1.460454
 H        -0.612058         1.459314         2.918593
 H        -4.176700         0.781597         3.032713
 H        -4.482632         1.398216         1.318819
 H        -3.163478        -2.110289         2.043879
 H        -2.741025        -1.735648         0.335575
 H        -1.588425        -0.694568         2.900905
