19
Iteration:  4843
 O         0.478560        -0.047483         0.515455
 C        -0.754349         0.267658         0.915664
 C        -1.992200         0.774421        -0.065374
 C        -2.498113         0.915865         1.424529
 C        -1.019004         1.519186         1.766855
 C        -3.953393         0.803064         1.932357
 O        -4.244657        -0.576592         1.604068
 C        -3.002978        -1.307302         1.484617
 C        -1.854430        -0.402567         1.813273
 H         0.580820        -1.099309         0.645341
 H        -1.757933         1.634306        -0.698753
 H        -2.566121         0.044853        -0.680797
 H        -0.720156         2.522649         1.445708
 H        -0.811878         1.345002         2.849388
 H        -4.119552         0.826069         3.019408
 H        -4.660125         1.481262         1.394946
 H        -3.128826        -2.182027         2.157559
 H        -2.896735        -1.639853         0.450012
 H        -1.433855        -0.496714         2.841499
