19
Iteration:  3991charge 0 multiplicity 1
 O         0.519194        -0.174467         0.559342
 C        -0.754984         0.298654         0.867741
 C        -1.933885         0.669721        -0.089611
 C        -2.516248         0.955478         1.395704
 C        -1.245287         1.619782         1.784753
 C        -3.948351         0.872839         1.822325
 O        -4.207677        -0.592502         1.904647
 C        -2.969847        -1.358581         1.466204
 C        -1.761718        -0.425106         1.718538
 H         0.832385         0.246714        -0.261536
 H        -1.912201         1.543035        -0.841590
 H        -2.405853        -0.170533        -0.611259
 H        -1.031794         2.529987         1.258753
 H        -0.910140         1.597760         2.830962
 H        -4.163279         1.341218         2.825196
 H        -4.621164         1.262269         1.052019
 H        -3.109094        -2.329850         2.099920
 H        -3.114586        -1.616956         0.381021
 H        -1.645119        -0.443475         2.872488
