19
Iteration:  3147charge 0 multiplicity 1
 O         0.461455        -0.292379         0.524015
 C        -0.795906         0.320203         0.851025
 C        -1.968355         0.789125        -0.083586
 C        -2.469524         0.958285         1.374205
 C        -1.247254         1.681445         1.959181
 C        -3.882796         0.798045         1.678384
 O        -4.076156        -0.562498         1.952211
 C        -3.036603        -1.380276         1.395181
 C        -1.846018        -0.441745         1.790529
 H         0.829759         0.199704        -0.185383
 H        -1.854015         1.640522        -0.936332
 H        -2.495115        -0.017749        -0.549910
 H        -1.006087         2.731161         1.671047
 H        -0.984592         1.584460         2.969482
 H        -4.179993         1.410214         2.578683
 H        -4.542857         1.084428         0.869440
 H        -3.070601        -2.334824         1.872400
 H        -3.086047        -1.620657         0.294713
 H        -1.478570        -0.421484         2.836365
