19
Iteration:  3350charge 0 multiplicity 1
 O         0.514938        -0.079999         0.478410
 C        -0.784159         0.280749         0.930530
 C        -2.025538         0.692783        -0.063841
 C        -2.461101         0.936288         1.362288
 C        -1.040662         1.650584         1.688128
 C        -3.861144         0.825000         2.033589
 O        -4.260737        -0.574472         1.591404
 C        -3.098259        -1.406003         1.534490
 C        -1.911716        -0.500642         1.822195
 H         1.243714         0.391016         1.067168
 H        -1.803960         1.558631        -0.724807
 H        -2.501430        -0.109956        -0.569945
 H        -0.690022         2.559462         1.139048
 H        -0.567632         1.768110         2.672240
 H        -3.598619         0.996908         3.082733
 H        -4.723214         1.454569         1.724774
 H        -3.212543        -2.347905         2.081218
 H        -3.127210        -1.730017         0.487158
 H        -1.567366        -0.530959         2.831253
