19
Iteration:  3753
 O         0.440256        -0.120079         0.451094
 C        -0.736563         0.395820         0.881788
 C        -1.829042         0.797526        -0.059108
 C        -2.490916         0.919492         1.389809
 C        -1.211196         1.565968         1.961651
 C        -3.980212         0.834363         1.690318
 O        -4.115898        -0.556486         1.990432
 C        -3.023274        -1.400974         1.437803
 C        -1.839110        -0.518918         1.655852
 H         0.288536        -1.118032         0.142525
 H        -1.641262         1.824242        -0.533878
 H        -2.297547         0.176673        -0.754956
 H        -1.060094         2.611482         1.573869
 H        -0.928618         1.485785         3.030314
 H        -4.317757         1.407998         2.544628
 H        -4.631712         1.120011         0.872125
 H        -2.949903        -2.288986         2.034787
 H        -3.390716        -1.694018         0.413227
 H        -1.593987        -0.529195         2.729763
