19
Iteration:  1464charge 0 multiplicity 1
 O         0.350863        -0.144894         0.400350
 C        -0.856521         0.324033         0.913666
 C        -2.008564         0.980391         0.172272
 C        -2.393344         0.899103         1.685680
 C        -0.919211         1.460031         1.959543
 C        -3.923602         0.794021         1.917651
 O        -4.207202        -0.474218         1.196173
 C        -2.966444        -1.415412         1.401439
 C        -1.895797        -0.485004         1.889568
 H         0.279640        -0.998958         0.204774
 H        -1.878606         1.951282        -0.293719
 H        -2.569455         0.321270        -0.481654
 H        -0.609172         2.450059         1.445490
 H        -0.355821         1.250844         2.970017
 H        -4.143757         0.698545         2.990571
 H        -4.669048         1.456880         1.409706
 H        -3.233881        -2.211227         2.188529
 H        -2.698123        -1.775510         0.432449
 H        -1.526193        -0.628848         2.901203
