19
Iteration:  3487charge 0 multiplicity 1
 O         0.455180        -0.055971         0.511139
 C        -0.784603         0.252374         0.895867
 C        -1.875714         0.735355        -0.076125
 C        -2.478003         0.852279         1.342221
 C        -1.093057         1.492180         1.721771
 C        -3.879013         0.819918         1.923665
 O        -4.279363        -0.602621         1.865980
 C        -3.078724        -1.262984         1.362462
 C        -1.851756        -0.447569         1.781396
 H         1.070023         0.401495         1.029563
 H        -1.652697         1.641948        -0.542459
 H        -2.228296         0.085610        -0.956342
 H        -1.000407         2.518749         1.384983
 H        -0.775360         1.506830         2.802780
 H        -3.761205         1.106420         2.988726
 H        -4.621862         1.466943         1.419348
 H        -2.996961        -2.294091         1.811893
 H        -3.122401        -1.453071         0.294909
 H        -1.903526        -0.462206         2.923075
