19
Iteration:  2899
 O         0.539235         0.010936         0.495918
 C        -0.786554         0.351849         0.893006
 C        -1.935586         0.718185        -0.086881
 C        -2.492702         0.926222         1.396878
 C        -1.033285         1.531780         1.821859
 C        -3.924773         0.819028         1.913763
 O        -4.268658        -0.538825         1.686403
 C        -3.056629        -1.423917         1.474855
 C        -1.936707        -0.460200         1.763875
 H         0.841469        -0.805979         1.126226
 H        -1.891798         1.494149        -0.874049
 H        -2.347503        -0.190679        -0.530495
 H        -0.711311         2.561518         1.483335
 H        -0.663312         1.303456         2.783301
 H        -3.829174         1.165295         2.969897
 H        -4.698934         1.442859         1.446326
 H        -3.180840        -2.351499         2.020958
 H        -3.064230        -1.775867         0.432276
 H        -1.457327        -0.654254         2.696578
