19
Iteration:  3470charge 0 multiplicity 1
 O         0.511087        -0.105566         0.508207
 C        -0.833105         0.321313         0.869685
 C        -1.957508         0.809213        -0.054635
 C        -2.452832         0.927357         1.434293
 C        -1.122560         1.596735         1.785758
 C        -3.891987         0.867266         1.806877
 O        -4.189657        -0.538908         1.890314
 C        -3.098496        -1.440621         1.398464
 C        -1.842428        -0.564727         1.720310
 H         0.992608        -0.090214         1.259249
 H        -1.801951         1.781544        -0.702390
 H        -2.474618         0.033414        -0.606828
 H        -0.736496         2.497966         1.256106
 H        -0.806309         1.573828         2.820875
 H        -4.239280         1.246539         2.794018
 H        -4.644221         1.198795         1.060959
 H        -3.112854        -2.418197         1.881355
 H        -3.237934        -1.609924         0.290006
 H        -1.359723        -0.812754         2.650245
