19
Iteration:  3521charge 0 multiplicity 1
 O         0.475213        -0.170460         0.540509
 C        -0.770955         0.314199         0.902408
 C        -1.978630         0.723169        -0.047802
 C        -2.467374         0.953168         1.389272
 C        -1.131253         1.652776         1.796703
 C        -3.852900         0.814494         1.977132
 O        -4.240276        -0.540860         1.702940
 C        -3.107228        -1.389035         1.386288
 C        -1.777460        -0.509776         1.689053
 H         1.117416         0.640092         0.466262
 H        -1.745615         1.594969        -0.637077
 H        -2.437146        -0.193846        -0.523027
 H        -1.022701         2.644583         1.330999
 H        -0.852845         1.517524         2.863868
 H        -3.888627         0.898623         3.073737
 H        -4.720313         1.358532         1.622808
 H        -2.963952        -2.126441         2.170795
 H        -3.303784        -1.838842         0.391263
 H        -1.578180        -0.539042         2.828954
