19
Iteration:  1752
 O         0.258367        -0.217534         0.395770
 C        -0.832355         0.275307         0.972997
 C        -1.986212         0.865001         0.135201
 C        -2.475155         1.083236         1.625674
 C        -0.908279         1.449420         1.889604
 C        -3.860256         0.806359         1.944599
 O        -4.202837        -0.538235         1.268959
 C        -2.866489        -1.420388         1.376552
 C        -1.934912        -0.436227         1.916100
 H         0.726234         0.457171         0.073170
 H        -1.685428         1.875047        -0.200141
 H        -2.651510         0.296525        -0.570900
 H        -0.829506         2.411960         1.451353
 H        -0.544144         1.310414         2.962015
 H        -4.025292         0.792468         3.024131
 H        -4.642501         1.434680         1.465875
 H        -3.241208        -2.219127         2.091441
 H        -2.663945        -1.876315         0.366436
 H        -1.637698        -0.580325         2.963778
