19
Iteration:    32
 O         0.607402         0.092272         0.574629
 C        -0.754814         0.252221         0.838543
 C        -1.974621         0.630126        -0.084535
 C        -2.480586         0.872033         1.435446
 C        -1.142272         1.486416         1.720776
 C        -3.870271         0.872627         2.001568
 O        -4.312026        -0.460344         1.691783
 C        -3.154111        -1.358794         1.391226
 C        -1.802590        -0.567042         1.740743
 H         0.926232        -0.313074         1.434919
 H        -1.763358         1.513069        -0.661115
 H        -2.300191        -0.096189        -0.722920
 H        -0.866410         2.422372         1.254811
 H        -0.939887         1.355378         2.829373
 H        -3.874718         1.062991         3.019746
 H        -4.563404         1.569085         1.626786
 H        -3.333300        -2.190128         2.005515
 H        -3.266186        -1.550782         0.350591
 H        -1.260136        -0.839366         2.673701
