19
Iteration:  4310charge 0 multiplicity 1
 O         0.412255        -0.162516         0.600562
 C        -0.801834         0.304478         0.929466
 C        -1.838749         0.833496        -0.071879
 C        -2.523922         0.944215         1.347368
 C        -1.007066         1.573354         1.742254
 C        -4.018685         0.718857         1.781866
 O        -4.141328        -0.648579         2.030613
 C        -3.013467        -1.337488         1.332011
 C        -1.926275        -0.392674         1.790415
 H         0.616862         0.113561        -0.339541
 H        -1.666978         1.820306        -0.556968
 H        -2.061080         0.103759        -0.827793
 H        -0.737138         2.514124         1.292604
 H        -0.767253         1.566232         2.771737
 H        -4.618312         1.377835         2.500344
 H        -4.426447         0.938124         0.772289
 H        -3.105698        -2.369708         1.536434
 H        -3.028771        -1.162897         0.280559
 H        -1.645512        -0.377179         2.882761
