19
Iteration:  4069charge 0 multiplicity 1
 O         0.420180        -0.281117         0.538706
 C        -0.778122         0.377141         0.883775
 C        -1.903865         0.814802        -0.098834
 C        -2.518615         0.920888         1.319549
 C        -1.218375         1.641858         1.717442
 C        -3.863036         0.817416         1.766788
 O        -4.164411        -0.632141         1.966550
 C        -2.958914        -1.376539         1.472117
 C        -1.883640        -0.427203         1.806603
 H         1.195507         0.456950         0.378704
 H        -1.751815         1.697491        -0.692295
 H        -2.435257         0.021123        -0.707214
 H        -1.102911         2.643445         1.340770
 H        -0.973662         1.639337         2.784648
 H        -3.940558         1.387830         2.737626
 H        -4.623358         1.158002         1.072164
 H        -2.987239        -2.332542         1.999198
 H        -3.108258        -1.512114         0.353637
 H        -1.536903        -0.492791         2.854023
