19
Iteration:  1498charge 0 multiplicity 1
 O         0.430508        -0.152148         0.463366
 C        -0.826242         0.302137         0.897271
 C        -1.954519         0.894799         0.073474
 C        -2.441908         0.853464         1.612213
 C        -1.083591         1.474941         2.036657
 C        -3.887363         0.840541         1.944271
 O        -4.258143        -0.410069         1.342433
 C        -2.970938        -1.368514         1.391171
 C        -1.791158        -0.566579         1.742649
 H         0.363891        -0.310771        -0.516205
 H        -1.827644         1.886475        -0.402640
 H        -2.405557         0.154355        -0.547242
 H        -0.887195         2.461432         1.624976
 H        -0.840361         1.397110         3.198370
 H        -4.008153         0.784423         3.038206
 H        -4.664660         1.577614         1.562603
 H        -3.226447        -2.185864         2.147686
 H        -2.993802        -1.879237         0.449267
 H        -1.462650        -0.768435         2.775450
