19
Iteration:  3845charge 0 multiplicity 1
 O         0.348987        -0.235454         0.444708
 C        -0.872229         0.341535         0.912566
 C        -1.927958         0.734345        -0.104146
 C        -2.506539         0.995484         1.485357
 C        -1.077562         1.629408         1.730401
 C        -3.931073         0.728840         2.019038
 O        -4.157377        -0.542036         1.460183
 C        -2.960518        -1.346669         1.646224
 C        -1.812403        -0.435015         1.833779
 H         1.231693         0.402417         0.578605
 H        -1.657354         1.641937        -0.662211
 H        -2.464763        -0.033316        -0.795568
 H        -0.879013         2.574023         1.183058
 H        -0.941108         1.664499         2.820743
 H        -3.991503         0.822687         3.100815
 H        -4.798591         1.347487         1.691615
 H        -3.086101        -2.208241         2.379805
 H        -2.786526        -1.922920         0.670430
 H        -1.305158        -0.341807         2.869475
