19
Iteration:  4700
 O         0.396753         0.001456         0.476415
 C        -0.855440         0.233237         0.964937
 C        -1.981314         0.677365        -0.036044
 C        -2.445289         0.982576         1.425422
 C        -1.035279         1.572099         1.725181
 C        -3.835448         0.746959         2.008948
 O        -4.236428        -0.564072         1.501388
 C        -3.029517        -1.368458         1.464777
 C        -1.879913        -0.403180         1.854356
 H         0.973235        -0.739107         0.924879
 H        -1.697486         1.556365        -0.662936
 H        -2.476998        -0.075165        -0.587950
 H        -0.667745         2.460717         1.151291
 H        -0.542253         1.481020         2.713828
 H        -3.859892         0.927489         3.105249
 H        -4.571776         1.558789         1.624087
 H        -3.064172        -2.003375         2.352514
 H        -2.963353        -1.858476         0.498638
 H        -1.622179        -0.301723         2.937793
