19
Iteration:  4227charge 0 multiplicity 1
 O         0.502363        -0.238886         0.431683
 C        -0.837825         0.321837         0.953476
 C        -2.110204         0.721459         0.009837
 C        -2.513860         0.963432         1.490767
 C        -1.026934         1.638061         1.728847
 C        -3.979143         0.798447         1.983470
 O        -4.131075        -0.571955         1.434872
 C        -2.926755        -1.361389         1.534127
 C        -1.902041        -0.346262         1.889109
 H         1.165876         0.334677         0.509627
 H        -1.984395         1.496075        -0.803126
 H        -2.743477        -0.090839        -0.286584
 H        -0.832579         2.551203         1.068962
 H        -0.482978         1.606915         2.727564
 H        -4.053558         0.582344         3.046214
 H        -4.762044         1.471139         1.524886
 H        -3.126989        -2.024434         2.415086
 H        -2.668335        -1.949013         0.571523
 H        -1.557763        -0.546471         2.879724
