19
Iteration:  3912charge 0 multiplicity 1
 O         0.373029        -0.073271         0.421040
 C        -0.826902         0.359897         0.938110
 C        -2.073533         0.644164        -0.022549
 C        -2.410316         0.925344         1.482908
 C        -1.100845         1.660025         1.761866
 C        -3.835111         0.845766         1.832473
 O        -4.194077        -0.589498         1.560009
 C        -2.920610        -1.390461         1.607977
 C        -1.806333        -0.420591         1.862776
 H         0.395950        -0.957388         0.478223
 H        -1.874551         1.529009        -0.721601
 H        -2.469885        -0.222373        -0.547020
 H        -0.934575         2.620709         1.242315
 H        -0.990017         1.695084         2.831631
 H        -4.091739         1.093172         2.864082
 H        -4.436166         1.554242         1.213401
 H        -3.035224        -2.213249         2.411052
 H        -2.875673        -1.976643         0.646319
 H        -1.531579        -0.713364         2.920357
