19
Iteration:  1401charge 0 multiplicity 1
 O         0.435885        -0.157563         0.476399
 C        -0.815250         0.294160         0.902126
 C        -1.920523         0.909185         0.099798
 C        -2.437012         0.891940         1.539391
 C        -1.114369         1.454028         1.982613
 C        -3.882852         0.798094         1.953710
 O        -4.227971        -0.437129         1.531072
 C        -3.050672        -1.326929         1.229972
 C        -1.856220        -0.569555         1.666835
 H         0.991224         0.037132         1.135995
 H        -1.802551         1.934852        -0.353698
 H        -2.402167         0.270875        -0.633413
 H        -0.822100         2.383555         1.703079
 H        -0.759568         1.164646         3.015608
 H        -3.825948         0.992751         3.074706
 H        -4.659219         1.541990         1.514981
 H        -3.244206        -2.268104         1.743163
 H        -3.107599        -1.612623         0.156742
 H        -1.440742        -1.052411         2.624099
