19
Iteration:  2721
 O         0.473590        -0.151399         0.497232
 C        -0.787102         0.329960         0.921053
 C        -1.951177         0.816615         0.061119
 C        -2.468717         0.875967         1.472917
 C        -1.104665         1.541234         1.803243
 C        -3.894824         0.830221         1.968224
 O        -4.251544        -0.533081         1.529614
 C        -3.052783        -1.409779         1.365556
 C        -1.868582        -0.445104         1.770285
 H         1.259828         0.466865         0.506960
 H        -1.841297         1.641325        -0.676263
 H        -2.419936        -0.102636        -0.443754
 H        -0.887089         2.612073         1.498973
 H        -0.566508         1.567620         2.894670
 H        -3.910090         0.861630         3.099700
 H        -4.586580         1.564021         1.528412
 H        -3.112694        -2.110880         2.213051
 H        -3.095529        -2.064535         0.399202
 H        -1.530160        -0.668471         2.796352
