19
Iteration:  3117
 O         0.369252        -0.290821         0.632743
 C        -0.816374         0.394357         0.879794
 C        -1.810771         0.957270        -0.084780
 C        -2.567374         0.938049         1.383415
 C        -0.999156         1.564011         1.697361
 C        -4.060977         0.688566         1.766730
 O        -4.125734        -0.651708         1.969267
 C        -2.985416        -1.333250         1.393944
 C        -1.863255        -0.372733         1.803220
 H         0.600519         0.134400        -0.200118
 H        -1.459017         1.864482        -0.543902
 H        -2.287572         0.225456        -0.829631
 H        -0.834272         2.601272         1.275919
 H        -0.469534         1.617585         2.690437
 H        -4.425352         1.240102         2.631170
 H        -4.638646         0.907955         0.856946
 H        -3.033158        -2.302750         1.900794
 H        -3.171450        -1.460453         0.263802
 H        -1.604649        -0.505888         2.870768
