19
Iteration:  2921charge 0 multiplicity 1
 O         0.507275        -0.083828         0.471436
 C        -0.781758         0.276710         0.917246
 C        -1.983288         0.743580        -0.005633
 C        -2.456023         0.870401         1.499564
 C        -1.169601         1.637369         1.768770
 C        -3.884652         0.818246         1.871536
 O        -4.261578        -0.554733         1.596042
 C        -3.003387        -1.343831         1.459063
 C        -1.810490        -0.475890         1.858416
 H         0.610271        -0.968673         0.417314
 H        -1.744557         1.746302        -0.370160
 H        -2.491687         0.200629        -0.819781
 H        -0.986431         2.603609         1.204420
 H        -0.766658         1.651483         2.749309
 H        -4.072538         0.997211         2.960038
 H        -4.472808         1.575759         1.334138
 H        -3.102321        -2.156154         2.178773
 H        -2.967598        -1.883883         0.527932
 H        -1.531700        -0.578861         2.912087
