19
Iteration:  1501
 O         0.430657        -0.143986         0.463372
 C        -0.813434         0.305159         0.886774
 C        -1.926387         0.894194         0.072246
 C        -2.446531         0.865617         1.608709
 C        -1.082681         1.458761         2.011956
 C        -3.889018         0.832550         1.940570
 O        -4.270784        -0.417072         1.355060
 C        -2.988406        -1.397244         1.386976
 C        -1.811256        -0.555578         1.769110
 H         0.407214        -0.206485        -0.443628
 H        -1.765997         1.918366        -0.333386
 H        -2.380027         0.157038        -0.612630
 H        -0.975166         2.448031         1.657866
 H        -0.853776         1.410615         3.090676
 H        -3.925684         0.768980         3.102098
 H        -4.580404         1.691712         1.616949
 H        -3.230389        -2.173201         2.118323
 H        -3.012679        -1.867565         0.366173
 H        -1.413639        -0.723134         2.822103
