19
Iteration:  1570charge 0 multiplicity 1
 O         0.387527        -0.257378         0.575961
 C        -0.804999         0.289175         0.920371
 C        -1.949912         1.007971        -0.008111
 C        -2.435071         0.897359         1.443996
 C        -1.121123         1.500905         1.987215
 C        -3.837984         0.817094         1.798195
 O        -4.144908        -0.550265         1.822815
 C        -3.070266        -1.347413         1.173415
 C        -1.865159        -0.533446         1.689125
 H         1.038523         0.483192         0.702694
 H        -1.818323         2.065524        -0.292723
 H        -2.461418         0.349129        -0.753123
 H        -1.047394         2.472036         1.429686
 H        -0.823827         1.427339         2.927988
 H        -4.078183         1.005402         2.910624
 H        -4.495801         1.422851         1.185051
 H        -3.266519        -2.370355         1.444660
 H        -3.133599        -1.248597         0.037875
 H        -1.446457        -0.987117         2.589021
