19
Iteration:  2873charge 0 multiplicity 1
 O         0.483694        -0.072727         0.490750
 C        -0.793547         0.266089         0.893896
 C        -1.870862         0.814542        -0.041159
 C        -2.471459         0.890413         1.364400
 C        -1.166377         1.527591         1.780133
 C        -3.853131         0.849552         1.906645
 O        -4.225052        -0.576508         1.767681
 C        -3.105534        -1.377002         1.437499
 C        -1.870449        -0.493336         1.744132
 H         1.053629         0.172785         1.325609
 H        -1.715737         1.657017        -0.691744
 H        -2.329980         0.042169        -0.653768
 H        -0.946703         2.525493         1.349890
 H        -1.004465         1.478822         2.914285
 H        -3.922342         1.310526         2.897979
 H        -4.583690         1.370968         1.284779
 H        -3.189352        -2.341103         1.885229
 H        -3.146329        -1.661866         0.341554
 H        -1.444170        -0.617216         2.786432
