19
Iteration:  2869charge 0 multiplicity 1
 O         0.490356        -0.095975         0.499647
 C        -0.786720         0.306915         0.885455
 C        -1.873649         0.833145        -0.038377
 C        -2.506949         0.875528         1.359150
 C        -1.164144         1.549861         1.784625
 C        -3.866069         0.833885         1.876559
 O        -4.210079        -0.548015         1.781310
 C        -3.077871        -1.384491         1.444478
 C        -1.900262        -0.535882         1.773385
 H         1.147241         0.180487         1.168237
 H        -1.704643         1.720154        -0.675290
 H        -2.314239        -0.002484        -0.732128
 H        -0.940185         2.476962         1.312748
 H        -0.901089         1.472026         2.872350
 H        -3.922195         1.239518         2.914653
 H        -4.638685         1.392166         1.275111
 H        -3.261291        -2.435560         1.869029
 H        -3.095095        -1.477661         0.336867
 H        -1.414446        -0.724555         2.744307
