19
Iteration:  4784charge 0 multiplicity 1
 O         0.356089        -0.280855         0.423455
 C        -0.832566         0.339641         0.846635
 C        -1.932067         0.863611        -0.002267
 C        -2.465769         0.947937         1.444292
 C        -1.043922         1.600986         1.875070
 C        -3.983821         0.769895         1.861297
 O        -4.242190        -0.605948         1.501407
 C        -2.882918        -1.337045         1.573284
 C        -1.867424        -0.364937         1.849822
 H         1.063432        -0.207252         0.947600
 H        -1.802448         1.919456        -0.495898
 H        -2.488615         0.136736        -0.631208
 H        -0.784667         2.631160         1.578331
 H        -0.625547         1.323599         2.840277
 H        -4.003391         0.776492         2.970745
 H        -4.749521         1.480041         1.475893
 H        -2.966959        -2.156256         2.293731
 H        -2.604787        -1.820655         0.553872
 H        -1.433218        -0.452881         2.881147
