19
Iteration:  1125charge 0 multiplicity 1
 O         0.432719        -0.135299         0.429473
 C        -0.817205         0.271519         0.884036
 C        -1.922408         0.953975         0.075933
 C        -2.439615         0.937142         1.540023
 C        -0.988691         1.466066         1.979171
 C        -3.877126         0.864651         1.965498
 O        -4.269185        -0.525755         1.413388
 C        -3.053920        -1.409696         1.306977
 C        -1.896864        -0.520612         1.774005
 H         1.000799        -0.435574         1.211378
 H        -1.801910         1.997428        -0.255003
 H        -2.494666         0.353146        -0.611701
 H        -0.784836         2.546302         1.942652
 H        -0.818614         1.080762         3.073500
 H        -3.900054         0.882033         3.027570
 H        -4.593344         1.620057         1.587164
 H        -3.353974        -2.403483         1.757669
 H        -3.043718        -1.675079         0.267601
 H        -1.544106        -0.855589         2.791657
