19
Iteration:  3817charge 0 multiplicity 1
 O         0.470919        -0.196730         0.615255
 C        -0.837468         0.322362         0.866842
 C        -2.127721         0.685889        -0.014166
 C        -2.418536         0.922982         1.462408
 C        -1.099818         1.660998         1.719410
 C        -3.810256         0.850966         1.934371
 O        -4.203550        -0.563462         1.609314
 C        -3.004192        -1.395212         1.467652
 C        -1.811401        -0.439258         1.741571
 H         1.132423         0.395378        -0.011541
 H        -2.019490         1.648529        -0.603412
 H        -2.728017        -0.089835        -0.346869
 H        -1.150463         2.639102         1.200691
 H        -0.873420         1.622070         2.793941
 H        -3.866514         0.991017         3.052833
 H        -4.587270         1.441691         1.426175
 H        -3.059128        -2.262004         2.122912
 H        -2.937534        -1.724517         0.450457
 H        -1.539997        -0.522126         2.789821
