19
Iteration:     7
 O         0.413168        -0.091306         0.457949
 C        -0.784927         0.295768         0.930739
 C        -1.958388         0.741570         0.000311
 C        -2.437059         0.900862         1.468987
 C        -1.081409         1.603392         1.817979
 C        -3.848049         0.834883         1.877690
 O        -4.190888        -0.540062         1.587017
 C        -3.025524        -1.377095         1.441012
 C        -1.902432        -0.496396         1.764946
 H         0.958997        -0.416915         1.366493
 H        -2.004417         1.666745        -0.616262
 H        -2.583309        -0.016666        -0.505126
 H        -0.899646         2.572065         1.348529
 H        -0.698648         1.350948         2.859682
 H        -4.066435         1.056510         2.954320
 H        -4.586907         1.509679         1.410531
 H        -3.087806        -2.188255         2.177630
 H        -3.062363        -1.693437         0.383366
 H        -1.736419        -0.486214         2.874203
