19
Iteration:  2701charge 0 multiplicity 1
 O         0.432206        -0.207235         0.527053
 C        -0.838996         0.316146         0.908381
 C        -1.966663         0.827402        -0.060695
 C        -2.411310         1.043149         1.505599
 C        -1.044745         1.544311         1.910147
 C        -3.930575         0.758144         1.956945
 O        -4.272777        -0.566729         1.440150
 C        -2.992238        -1.394475         1.471347
 C        -1.814888        -0.454051         1.836422
 H         0.705523         0.337757        -0.369375
 H        -2.020274         1.906455        -0.466960
 H        -2.380792         0.069848        -0.777347
 H        -0.766419         2.518616         1.408659
 H        -0.694932         1.532111         2.972797
 H        -3.984059         0.827597         3.070058
 H        -4.697234         1.378938         1.465156
 H        -3.150695        -2.157719         2.247728
 H        -2.827448        -1.780978         0.422257
 H        -1.410213        -0.654842         2.815968
