19
Iteration:  4557
 O         0.562559         0.040676         0.550640
 C        -0.811833         0.253464         0.876345
 C        -1.888913         0.754998        -0.165464
 C        -2.520652         0.980887         1.276484
 C        -1.126758         1.511383         1.704311
 C        -3.783755         0.815411         1.947501
 O        -4.249648        -0.530432         1.847480
 C        -3.134974        -1.440968         1.455226
 C        -1.924195        -0.575081         1.785293
 H         1.045945         0.265065         1.415071
 H        -1.529716         1.640494        -0.737179
 H        -2.380176         0.098804        -0.894231
 H        -0.704278         2.454484         1.234913
 H        -1.174154         1.462587         2.825039
 H        -3.721043         1.246892         2.992343
 H        -4.743172         1.265954         1.431455
 H        -3.261264        -2.271728         2.158947
 H        -3.368983        -1.855939         0.463681
 H        -1.542072        -0.782358         2.785774
