19
Iteration:  3270charge 0 multiplicity 1
 O         0.387629        -0.287072         0.462613
 C        -0.789129         0.360020         0.873706
 C        -1.996349         0.784856         0.047408
 C        -2.516098         1.026779         1.519629
 C        -0.936402         1.664466         1.728392
 C        -4.121410         0.728412         1.874126
 O        -4.221763        -0.656054         1.488855
 C        -2.858064        -1.327621         1.589143
 C        -1.781790        -0.327917         1.954667
 H         0.355910        -0.187679        -0.495259
 H        -1.722307         1.695731        -0.541980
 H        -2.518935         0.039325        -0.752467
 H        -0.587832         2.514792         1.183866
 H        -0.559916         1.451262         2.745722
 H        -4.327566         0.956335         2.970854
 H        -4.765340         1.345778         1.232345
 H        -3.140424        -1.895465         2.448279
 H        -2.835139        -1.922228         0.634880
 H        -1.229228        -0.532804         2.910320
