19
Iteration:  4636
 O         0.259570        -0.242797         0.367815
 C        -0.857311         0.308350         0.991778
 C        -1.879134         0.801442        -0.049992
 C        -2.479192         0.973041         1.463284
 C        -1.104646         1.683264         1.856966
 C        -3.953922         0.824873         1.696703
 O        -4.132065        -0.633060         1.799872
 C        -2.894673        -1.350260         1.408827
 C        -1.771448        -0.428203         1.883673
 H         0.870994        -0.751272         1.099801
 H        -1.608441         1.731834        -0.530658
 H        -2.428434         0.145391        -0.654982
 H        -0.883033         2.727133         1.514355
 H        -0.727966         1.456681         2.877047
 H        -4.451433         1.257733         2.612897
 H        -4.543175         1.220380         0.790612
 H        -3.114999        -2.335702         1.907147
 H        -2.816957        -1.455158         0.340204
 H        -1.720456        -0.450007         2.949825
