19
Iteration:  3758charge 0 multiplicity 1
 O         0.481488        -0.144439         0.427948
 C        -0.811845         0.374385         0.935038
 C        -1.848083         0.838335        -0.042966
 C        -2.480498         0.913331         1.358746
 C        -1.200444         1.595162         1.929719
 C        -3.941238         0.822005         1.687895
 O        -4.114121        -0.569157         1.977083
 C        -3.043616        -1.394022         1.438917
 C        -1.844341        -0.494443         1.698136
 H         0.345133        -0.933745         0.025628
 H        -1.653752         1.691183        -0.639729
 H        -2.250270         0.089098        -0.861483
 H        -1.071652         2.668980         1.814833
 H        -0.999801         1.461023         3.000259
 H        -4.237429         1.370221         2.619676
 H        -4.690639         1.137023         0.898363
 H        -3.066265        -2.360993         2.020526
 H        -3.299093        -1.713684         0.420401
 H        -1.569964        -0.557880         2.768720
