19
Iteration:  1135charge 0 multiplicity 1
 O         0.414230        -0.141778         0.373308
 C        -0.825648         0.268433         0.964404
 C        -1.930447         1.020786         0.112799
 C        -2.425195         0.944600         1.565835
 C        -0.996795         1.417978         1.935908
 C        -3.845554         0.790264         1.975859
 O        -4.249783        -0.503390         1.379254
 C        -3.059837        -1.438647         1.283102
 C        -1.967373        -0.510747         1.845946
 H         1.032954        -0.110191         1.240955
 H        -1.551680         1.988688        -0.266831
 H        -2.500082         0.510542        -0.630838
 H        -0.537027         2.339100         1.469069
 H        -0.670103         1.290220         3.002805
 H        -4.122437         0.813151         2.978937
 H        -4.458101         1.522621         1.400376
 H        -3.302139        -2.364742         1.951218
 H        -2.872014        -1.699404         0.246778
 H        -1.712679        -0.593530         2.948126
