19
Iteration:  3621
 O         0.409125        -0.244590         0.483108
 C        -0.830435         0.324337         0.866782
 C        -2.124799         0.803527         0.097736
 C        -2.473365         0.920416         1.572865
 C        -1.038607         1.627634         1.809934
 C        -3.890191         0.808785         1.904035
 O        -4.133680        -0.551785         1.340293
 C        -2.970926        -1.404710         1.567064
 C        -1.792131        -0.386599         1.852423
 H         0.619242        -0.030590        -0.457627
 H        -2.089702         1.713343        -0.539798
 H        -2.777781         0.147610        -0.382455
 H        -0.837385         2.653713         1.432048
 H        -0.580443         1.564573         2.774112
 H        -4.056110         0.843825         2.984541
 H        -4.540480         1.488618         1.392563
 H        -3.071840        -1.997808         2.480610
 H        -2.844867        -2.168510         0.768688
 H        -1.446423        -0.510002         2.918537
