19
Iteration:  1020charge 0 multiplicity 1
 O         0.428693        -0.225061         0.517381
 C        -0.778314         0.285498         0.896536
 C        -1.811497         0.947124         0.021876
 C        -2.440044         0.862445         1.509199
 C        -1.171512         1.501310         2.063579
 C        -3.875947         0.878296         1.844111
 O        -4.231598        -0.586676         1.728930
 C        -3.057343        -1.332526         1.213339
 C        -1.881727        -0.533985         1.703216
 H         0.591101         0.209667        -0.458846
 H        -1.634831         2.018076        -0.076313
 H        -2.218300         0.565925        -0.979957
 H        -0.840031         2.417324         1.681528
 H        -0.933226         1.283134         3.136007
 H        -4.167175         1.334230         2.849253
 H        -4.351150         1.450999         1.071273
 H        -3.295341        -2.291394         1.643325
 H        -3.136255        -1.294665         0.054076
 H        -1.637004        -0.729096         2.730501
