19
Iteration:   679charge 0 multiplicity 1
 O         0.532084        -0.232693         0.576999
 C        -0.752746         0.271752         0.911234
 C        -1.902927         0.952743         0.073247
 C        -2.449804         0.996184         1.427229
 C        -1.163742         1.483659         1.991948
 C        -3.888199         0.834813         1.862553
 O        -4.196328        -0.624383         1.763883
 C        -3.102741        -1.288156         1.218409
 C        -1.931287        -0.467647         1.613962
 H         0.524765        -0.638028        -0.403598
 H        -1.680384         1.954417        -0.424991
 H        -2.305998         0.169219        -0.580411
 H        -0.679050         2.484786         1.684164
 H        -1.082475         1.441537         3.154765
 H        -3.961800         1.018255         2.969955
 H        -4.602130         1.415699         1.289449
 H        -3.243350        -2.279891         1.548821
 H        -3.092361        -1.260634         0.123080
 H        -1.614415        -0.708985         2.614911
