19
Iteration:    43charge 0 multiplicity 1
 O         0.630406         0.064636         0.535686
 C        -0.773953         0.253026         0.855941
 C        -1.819147         0.684695        -0.130436
 C        -2.478034         0.809120         1.403610
 C        -1.147999         1.490491         1.702883
 C        -3.961231         0.845359         2.037178
 O        -4.363398        -0.477781         1.734491
 C        -3.136115        -1.290958         1.435714
 C        -1.844203        -0.587663         1.717404
 H         1.230973        -0.259056         1.450457
 H        -1.736951         1.661351        -0.529994
 H        -2.329182         0.024041        -0.709786
 H        -0.961448         2.477208         1.290281
 H        -0.703348         1.487495         2.752187
 H        -3.853692         0.975607         3.054550
 H        -4.624031         1.510425         1.576681
 H        -3.222564        -2.218774         1.903411
 H        -3.169794        -1.555073         0.404028
 H        -1.642488        -0.650813         2.815698
