19
Iteration:  1872charge 0 multiplicity 1
 O         0.391968        -0.220915         0.582251
 C        -0.802028         0.320053         0.867703
 C        -1.865017         0.953063         0.013217
 C        -2.428281         0.873446         1.517342
 C        -1.115396         1.488694         2.024293
 C        -3.880836         0.872724         1.832833
 O        -4.230696        -0.564259         1.788226
 C        -3.010967        -1.324818         1.206704
 C        -1.850333        -0.585859         1.618004
 H         0.773307         0.270173        -0.268536
 H        -1.772233         2.051483        -0.334639
 H        -2.429209         0.403852        -0.782848
 H        -1.015859         2.474316         1.593128
 H        -0.857613         1.390187         3.160033
 H        -4.160175         1.352409         2.812072
 H        -4.527364         1.296083         0.995610
 H        -2.982497        -2.345873         1.746989
 H        -3.218460        -1.453244         0.116713
 H        -1.620468        -0.767416         2.688113
