19
Iteration:  1013charge 0 multiplicity 1
 O         0.451198        -0.217434         0.464156
 C        -0.816854         0.277184         0.928937
 C        -1.750256         0.961604        -0.003609
 C        -2.490942         0.858032         1.531503
 C        -1.153702         1.450468         2.043782
 C        -3.929780         0.902765         1.837838
 O        -4.233443        -0.592569         1.740964
 C        -3.058763        -1.318277         1.202706
 C        -1.905801        -0.528609         1.753154
 H         0.779791         0.293433        -0.281597
 H        -1.478652         2.006269        -0.178685
 H        -2.222158         0.545026        -0.893382
 H        -0.844633         2.547159         1.699097
 H        -0.766163         1.279497         3.009654
 H        -4.103365         1.266428         2.799871
 H        -4.471891         1.582129         1.122768
 H        -3.083134        -2.402996         1.516565
 H        -3.014841        -1.427415         0.170118
 H        -1.676078        -0.693280         2.834398
