19
Iteration:  4233
 O         0.507769        -0.204792         0.450185
 C        -0.821069         0.308497         0.931769
 C        -2.071396         0.717403        -0.051866
 C        -2.500143         1.031873         1.502411
 C        -0.993963         1.611464         1.735711
 C        -3.990565         0.763549         1.971029
 O        -4.165822        -0.584002         1.472330
 C        -2.975339        -1.389967         1.526816
 C        -1.901878        -0.368341         1.871438
 H         1.235840         0.582574         0.473322
 H        -1.876600         1.470798        -0.801791
 H        -2.793289        -0.092250        -0.281918
 H        -0.736919         2.434766         1.121154
 H        -0.567204         1.793268         2.697313
 H        -4.044816         0.749711         3.101220
 H        -4.752420         1.459990         1.692631
 H        -2.982125        -2.083785         2.365638
 H        -2.900703        -1.977520         0.645857
 H        -1.667630        -0.527748         2.971496
