19
Iteration:  3475charge 0 multiplicity 1
 O         0.482929        -0.091351         0.507159
 C        -0.815692         0.317555         0.891825
 C        -1.937082         0.784017        -0.067771
 C        -2.463447         0.929249         1.396765
 C        -1.102548         1.593405         1.755488
 C        -3.894897         0.827482         1.841245
 O        -4.216542        -0.570276         1.885803
 C        -3.084041        -1.379590         1.388329
 C        -1.847895        -0.574596         1.724252
 H         1.127206         0.091175         1.348913
 H        -1.729629         1.706847        -0.481915
 H        -2.486290         0.070074        -0.715169
 H        -0.793355         2.495948         1.239856
 H        -0.818565         1.460078         2.825769
 H        -4.035069         1.283312         2.831186
 H        -4.556017         1.359500         1.109908
 H        -3.302152        -2.332221         1.940517
 H        -3.217030        -1.504288         0.327010
 H        -1.371452        -0.730547         2.730616
