19
Iteration:  1111
 O         0.458377        -0.135895         0.451837
 C        -0.778063         0.355187         0.916856
 C        -1.940835         0.859313         0.032364
 C        -2.422791         0.900399         1.558408
 C        -1.119717         1.425783         2.089974
 C        -3.873480         0.799224         1.958759
 O        -4.267370        -0.467282         1.515155
 C        -3.093329        -1.268622         1.240061
 C        -1.811295        -0.535196         1.612638
 H         0.711312        -0.816501         1.192309
 H        -1.739767         1.784889        -0.537750
 H        -2.380070         0.126055        -0.621708
 H        -0.799384         2.490919         1.749236
 H        -0.721997         1.182355         3.004538
 H        -4.082676         0.884012         3.036440
 H        -4.598074         1.512141         1.512197
 H        -3.049828        -2.122650         2.022451
 H        -3.134982        -1.738350         0.215102
 H        -1.454552        -0.790351         2.638534
