19
Iteration:   783charge 0 multiplicity 1
 O         0.520308        -0.075593         0.537306
 C        -0.807632         0.251426         0.926957
 C        -1.988817         0.957688         0.088359
 C        -2.419125         0.914635         1.507313
 C        -1.003767         1.416858         1.874772
 C        -3.845453         0.855616         1.959127
 O        -4.242936        -0.543121         1.561098
 C        -3.092921        -1.386028         1.206154
 C        -1.948531        -0.456393         1.744504
 H         0.610718        -1.008565         0.865375
 H        -2.002965         1.923753        -0.341287
 H        -2.458967         0.254760        -0.653285
 H        -0.837184         2.397111         1.391013
 H        -0.700160         1.239085         2.867155
 H        -3.972348         1.000142         3.080702
 H        -4.575533         1.566181         1.440383
 H        -3.244640        -2.377196         1.751928
 H        -2.976830        -1.693078         0.135522
 H        -1.667793        -0.754143         2.801794
