19
Iteration:  2154charge 0 multiplicity 1
 O         0.512832        -0.094783         0.395191
 C        -0.742801         0.321897         0.881496
 C        -1.917994         0.848921         0.090975
 C        -2.404961         0.889511         1.497592
 C        -1.135397         1.423667         2.014048
 C        -3.870334         0.893674         1.866041
 O        -4.286758        -0.570882         1.748376
 C        -3.051689        -1.355084         1.204803
 C        -1.941337        -0.466871         1.660094
 H         0.908931        -0.492687         1.231380
 H        -1.723462         1.821181        -0.470962
 H        -2.263005         0.105980        -0.558715
 H        -0.885000         2.446256         1.809676
 H        -1.145138         1.323185         3.173930
 H        -3.845282         1.266189         2.939551
 H        -4.498116         1.442993         1.131688
 H        -3.287978        -2.296102         1.780513
 H        -3.176382        -1.367412         0.062055
 H        -1.593295        -0.979050         2.621235
