19
Iteration:  1584
 O         0.403153        -0.288479         0.537391
 C        -0.821735         0.302569         0.954112
 C        -1.859956         1.003771         0.079360
 C        -2.473843         1.010587         1.475264
 C        -1.064162         1.534046         1.899591
 C        -3.964687         0.831035         1.841561
 O        -4.178157        -0.667068         1.865599
 C        -3.050785        -1.319474         1.132336
 C        -1.876305        -0.542502         1.616662
 H         1.224442         0.364860         0.577247
 H        -1.466848         1.938367        -0.354045
 H        -2.369745         0.530286        -0.719247
 H        -0.636138         2.486153         1.582135
 H        -0.910522         1.313630         3.015551
 H        -4.157331         1.396398         2.739635
 H        -4.580311         1.205833         1.013023
 H        -2.973847        -2.401099         1.540811
 H        -3.267582        -1.435842         0.093882
 H        -1.794142        -0.676287         2.689249
