19
Iteration:  3080charge 0 multiplicity 1
 O         0.474246        -0.267060         0.549089
 C        -0.791619         0.334122         0.927239
 C        -1.948644         0.772672        -0.023101
 C        -2.518794         0.921107         1.406474
 C        -1.264205         1.590167         1.798899
 C        -3.911140         0.829821         1.827928
 O        -4.108401        -0.545395         1.827403
 C        -2.977731        -1.355368         1.403624
 C        -1.827336        -0.408601         1.714748
 H         1.128441         0.320418         0.012277
 H        -1.885616         1.624667        -0.855380
 H        -2.522923        -0.001461        -0.460635
 H        -1.078019         2.514254         1.277156
 H        -0.918868         1.459342         2.801410
 H        -4.123996         1.311503         2.822150
 H        -4.569582         1.366045         1.131269
 H        -2.973033        -2.256523         2.028930
 H        -3.176764        -1.767229         0.377170
 H        -1.522187        -0.498157         2.786164
