19
Iteration:     2
 O         0.409412        -0.137027         0.440763
 C        -0.799234         0.299875         0.920858
 C        -1.946502         0.771014         0.011183
 C        -2.455189         0.932450         1.480272
 C        -1.086830         1.581352         1.825770
 C        -3.890186         0.820978         1.875456
 O        -4.203597        -0.552688         1.574973
 C        -3.011630        -1.368419         1.447735
 C        -1.862220        -0.456644         1.807758
 H         0.914399        -0.377982         1.150734
 H        -1.816125         1.704055        -0.559300
 H        -2.480570        -0.002788        -0.611646
 H        -0.864189         2.560867         1.361573
 H        -0.763192         1.489436         2.845066
 H        -4.063882         1.036891         2.976538
 H        -4.605029         1.468950         1.318907
 H        -3.094082        -2.221666         2.163018
 H        -2.983967        -1.754594         0.409915
 H        -1.582110        -0.547485         2.859760
