19
Iteration:  4568charge 0 multiplicity 1
 O         0.525967         0.065161         0.577147
 C        -0.805112         0.245010         0.873846
 C        -1.946634         0.764312        -0.171245
 C        -2.438217         0.845562         1.269138
 C        -1.198987         1.496224         1.757361
 C        -3.841061         0.892849         1.881799
 O        -4.206259        -0.504856         1.851977
 C        -3.148304        -1.423354         1.521338
 C        -1.844889        -0.644879         1.682867
 H         1.008407         0.279345         1.281846
 H        -1.516810         1.710152        -0.551451
 H        -2.356987         0.057414        -0.878774
 H        -1.008232         2.567765         1.438145
 H        -0.780278         1.346862         2.793499
 H        -3.675748         1.203055         2.965153
 H        -4.570313         1.676634         1.373753
 H        -3.143009        -2.239914         2.254653
 H        -3.336841        -1.797296         0.505417
 H        -1.724193        -0.592385         2.771136
