19
Iteration:  1218
 O         0.418565        -0.096781         0.404804
 C        -0.779646         0.314339         0.989691
 C        -1.873555         0.957001         0.054037
 C        -2.416458         0.921692         1.547689
 C        -0.879173         1.432408         1.944693
 C        -3.946711         0.750070         1.981985
 O        -4.320901        -0.495070         1.372986
 C        -3.084373        -1.410838         1.315147
 C        -1.982576        -0.490444         1.784382
 H         0.990109        -0.399765         1.284405
 H        -1.761148         1.980491        -0.386320
 H        -2.476000         0.344231        -0.588715
 H        -0.786133         2.529456         1.609489
 H        -0.302242         1.337845         2.914340
 H        -3.977140         0.590948         3.113109
 H        -4.667793         1.532380         1.749022
 H        -3.158102        -2.252019         1.938728
 H        -2.884501        -1.887698         0.318956
 H        -1.663153        -0.705996         2.776321
