19
Iteration:  2555
 O         0.424357        -0.040324         0.542465
 C        -0.815900         0.295246         0.965915
 C        -1.910880         0.874012         0.005847
 C        -2.479915         0.882028         1.503487
 C        -1.062507         1.454703         1.853968
 C        -3.915556         0.871525         1.892636
 O        -4.184407        -0.574450         1.719270
 C        -3.010973        -1.336814         1.275078
 C        -1.898424        -0.527275         1.678900
 H         0.525433        -1.084008         0.467788
 H        -1.459507         1.851233        -0.408904
 H        -2.352590         0.311087        -0.855665
 H        -0.851848         2.464088         1.409953
 H        -0.717044         1.432349         2.959456
 H        -4.181139         1.157397         2.943597
 H        -4.545023         1.468621         1.214809
 H        -3.003398        -2.345023         1.668991
 H        -3.065005        -1.530384         0.160003
 H        -1.725641        -0.758721         2.751914
