19
Iteration:  3371
 O         0.464264        -0.121316         0.654266
 C        -0.876778         0.257868         0.811690
 C        -2.023405         0.711344        -0.081947
 C        -2.438826         0.908047         1.486637
 C        -1.141302         1.520114         1.650902
 C        -3.858402         0.863318         1.945225
 O        -4.202749        -0.535286         1.726031
 C        -2.956137        -1.363058         1.408203
 C        -1.817355        -0.451461         1.761521
 H         0.959676         0.517804         0.282678
 H        -1.887380         1.746938        -0.532251
 H        -2.525431        -0.013390        -0.751627
 H        -0.996253         2.575228         1.329887
 H        -0.764855         1.486129         2.697850
 H        -3.922247         1.150287         3.055771
 H        -4.538082         1.518373         1.332813
 H        -3.094493        -2.196098         2.101309
 H        -3.296874        -1.780176         0.449634
 H        -1.437043        -0.573101         2.770848
