19
Iteration:  3208charge 0 multiplicity 1
 O         0.562358        -0.158073         0.624818
 C        -0.802220         0.308287         0.822791
 C        -2.088165         0.727369        -0.052095
 C        -2.478059         0.940067         1.450798
 C        -1.028860         1.572245         1.653740
 C        -3.916518         0.842546         1.942975
 O        -4.295039        -0.591429         1.670666
 C        -3.021708        -1.390791         1.476312
 C        -1.846079        -0.379849         1.774838
 H         1.142447         0.495942         0.392671
 H        -2.014742         1.584363        -0.641344
 H        -2.603732        -0.136620        -0.494127
 H        -0.730356         2.486127         1.070280
 H        -0.571066         1.566271         2.712615
 H        -3.932760         1.055572         3.001142
 H        -4.685598         1.406807         1.380211
 H        -3.015950        -2.117487         2.361774
 H        -2.937224        -1.915635         0.501596
 H        -1.419084        -0.588555         2.760120
