19
Iteration:   991charge 0 multiplicity 1
 O         0.429387        -0.205114         0.465207
 C        -0.761702         0.274652         0.951174
 C        -1.859615         0.888122         0.080815
 C        -2.453395         1.026344         1.458005
 C        -0.955780         1.442775         2.042394
 C        -3.979959         0.775333         1.868150
 O        -4.255124        -0.616100         1.695942
 C        -3.106779        -1.301963         1.221910
 C        -1.918766        -0.454036         1.669577
 H         1.079022         0.635352         0.353062
 H        -1.654370         1.864037        -0.366854
 H        -2.342959         0.309326        -0.687492
 H        -0.357444         2.388228         1.661945
 H        -0.825636         1.285801         3.083329
 H        -4.204564         1.179401         2.801506
 H        -4.567827         1.378867         1.115255
 H        -3.253750        -2.341860         1.627788
 H        -3.192869        -1.457324         0.183389
 H        -1.705722        -0.640344         2.752075
