19
Iteration:  2151
 O         0.521348        -0.058143         0.403138
 C        -0.756872         0.312317         0.881132
 C        -1.900041         0.833603         0.095883
 C        -2.418743         0.901949         1.477916
 C        -1.118790         1.410246         1.993922
 C        -3.855761         0.891548         1.878794
 O        -4.291386        -0.581795         1.727471
 C        -3.085630        -1.336514         1.205960
 C        -1.943762        -0.487619         1.689014
 H         0.958529        -0.494549         1.301464
 H        -1.814488         1.812459        -0.426272
 H        -2.361338         0.031294        -0.550605
 H        -0.858470         2.397850         1.786636
 H        -0.920479         1.310919         3.143893
 H        -3.807943         1.240399         2.929793
 H        -4.491457         1.433194         1.191951
 H        -3.284140        -2.198623         1.740602
 H        -3.202842        -1.404894         0.081526
 H        -1.608035        -0.906209         2.636820
