19
Iteration:  3267charge 0 multiplicity 1
 O         0.396977        -0.307945         0.454287
 C        -0.797573         0.379417         0.903066
 C        -1.984607         0.769075         0.047163
 C        -2.512334         1.019921         1.499311
 C        -0.965360         1.684780         1.732272
 C        -4.108598         0.721382         1.894559
 O        -4.233799        -0.637112         1.484363
 C        -2.851734        -1.337034         1.588225
 C        -1.780708        -0.323022         1.938164
 H         0.448661        -0.137778        -0.623938
 H        -1.693796         1.668120        -0.567746
 H        -2.517190         0.075656        -0.630053
 H        -0.520304         2.528193         1.186634
 H        -0.602461         1.495239         2.705362
 H        -4.299101         0.967192         2.981910
 H        -4.807338         1.301789         1.285072
 H        -3.128429        -2.008226         2.411130
 H        -2.837623        -1.903516         0.666972
 H        -1.310623        -0.556809         2.937732
