19
Iteration:  1980charge 0 multiplicity 1
 O         0.544847        -0.053121         0.464540
 C        -0.762623         0.295455         0.900879
 C        -1.912936         0.894161        -0.022055
 C        -2.473808         0.891988         1.541619
 C        -0.987777         1.475923         1.887919
 C        -3.922546         0.735804         1.976465
 O        -4.299164        -0.538867         1.582428
 C        -3.176824        -1.318658         1.347993
 C        -1.943464        -0.460135         1.649418
 H         1.087551        -0.668362         1.149813
 H        -1.622570         1.894003        -0.420819
 H        -2.228533         0.071258        -0.632214
 H        -0.636385         2.389021         1.431809
 H        -0.614197         1.416133         3.004187
 H        -3.911672         0.691754         3.069352
 H        -4.660487         1.517905         1.732412
 H        -3.257405        -2.228022         2.028866
 H        -3.011376        -1.786516         0.380612
 H        -1.588994        -0.705483         2.709043
