19
Iteration:  2895
 O         0.534937         0.004170         0.510802
 C        -0.789823         0.341840         0.883218
 C        -1.942821         0.679542        -0.101425
 C        -2.489210         0.939542         1.405477
 C        -1.039609         1.555587         1.847453
 C        -3.901738         0.830674         1.893864
 O        -4.282706        -0.546711         1.717141
 C        -3.031530        -1.409166         1.445705
 C        -1.962468        -0.465375         1.733847
 H         0.924589        -0.603711         1.064175
 H        -1.824392         1.497856        -0.829995
 H        -2.390537        -0.094839        -0.704261
 H        -0.685609         2.559491         1.483321
 H        -0.583080         1.256547         2.850021
 H        -3.874106         1.065574         2.982490
 H        -4.639920         1.521554         1.496150
 H        -3.078487        -2.280028         2.106150
 H        -3.126459        -1.919222         0.442262
 H        -1.541453        -0.697180         2.764654
