19
Iteration:  4681
 O         0.396768        -0.221520         0.490380
 C        -0.815352         0.341993         0.826337
 C        -1.927983         0.883640        -0.072945
 C        -2.486700         0.970319         1.422875
 C        -1.072955         1.631566         1.760642
 C        -3.935920         0.783399         1.940682
 O        -4.195572        -0.603186         1.585945
 C        -2.973930        -1.421823         1.533948
 C        -1.843639        -0.381494         1.853553
 H         0.555253        -0.999551         1.212983
 H        -1.684254         1.804309        -0.529230
 H        -2.353318         0.180327        -0.783852
 H        -0.900396         2.574403         1.225694
 H        -0.716792         1.646403         2.817419
 H        -3.944804         0.870854         3.070413
 H        -4.842440         1.297672         1.570812
 H        -2.991920        -2.280810         2.257980
 H        -2.889333        -1.745493         0.514571
 H        -1.441544        -0.554550         2.834577
