19
Iteration:  4231charge 0 multiplicity 1
 O         0.508007        -0.220358         0.441555
 C        -0.829320         0.315181         0.944945
 C        -2.084609         0.725114        -0.038995
 C        -2.506679         1.004723         1.496556
 C        -1.004459         1.620263         1.733998
 C        -3.991554         0.778315         1.971424
 O        -4.148666        -0.580174         1.461490
 C        -2.957833        -1.380076         1.522584
 C        -1.908539        -0.357523         1.876191
 H         1.285114         0.541569         0.479441
 H        -1.909608         1.451334        -0.798024
 H        -2.818442        -0.114267        -0.241985
 H        -0.764501         2.458597         1.095765
 H        -0.511115         1.738671         2.723910
 H        -4.055374         0.657084         3.131143
 H        -4.764442         1.490404         1.642463
 H        -3.033904        -2.073687         2.422696
 H        -2.809799        -1.958857         0.642869
 H        -1.638613        -0.570311         2.964588
