19
Iteration:  3024charge 0 multiplicity 1
 O         0.530423        -0.160496         0.490902
 C        -0.861789         0.283778         0.872243
 C        -2.075442         0.695374        -0.053647
 C        -2.521894         0.942563         1.440890
 C        -1.044866         1.609351         1.721870
 C        -3.944097         0.891297         1.985619
 O        -4.175421        -0.567088         1.496439
 C        -3.008810        -1.402540         1.555465
 C        -1.831556        -0.444710         1.882717
 H         1.242594         0.654702         0.555588
 H        -1.982838         1.688698        -0.624559
 H        -2.554911        -0.183651        -0.598408
 H        -0.818735         2.616119         1.587781
 H        -0.792962         1.347476         2.766660
 H        -4.013541         1.136286         3.066713
 H        -4.659265         1.397362         1.306197
 H        -3.002179        -2.093232         2.442340
 H        -3.012917        -1.941254         0.594089
 H        -1.291981        -0.600260         2.838448
