19
Iteration:  4836
 O         0.446029        -0.109727         0.511404
 C        -0.820291         0.310725         0.919631
 C        -2.018937         0.712193        -0.055208
 C        -2.488139         0.941013         1.453530
 C        -1.061809         1.538832         1.739465
 C        -3.903089         0.802999         1.956057
 O        -4.263537        -0.563960         1.585024
 C        -2.957722        -1.294508         1.381935
 C        -1.772221        -0.418376         1.908004
 H         0.674465        -1.011896         0.761158
 H        -1.713367         1.594051        -0.567103
 H        -2.515161        -0.047928        -0.654233
 H        -0.841418         2.556029         1.379512
 H        -0.884247         1.533018         2.829520
 H        -4.243197         0.920432         3.022229
 H        -4.561940         1.521363         1.509120
 H        -3.079804        -2.226459         1.912389
 H        -2.784453        -1.448927         0.324403
 H        -1.371917        -0.434641         2.898630
