19
Iteration:   613
 O         0.539129        -0.228279         0.521145
 C        -0.815417         0.291978         0.843449
 C        -2.031958         0.875220         0.090688
 C        -2.491635         0.924227         1.647393
 C        -1.062391         1.468392         1.914509
 C        -3.943797         0.910949         1.953051
 O        -4.228406        -0.437067         1.437122
 C        -3.016861        -1.439125         1.342341
 C        -1.836116        -0.561166         1.727210
 H         1.058162         0.642805         0.155115
 H        -1.907919         1.872466        -0.405731
 H        -2.652659         0.137564        -0.445531
 H        -0.703775         2.509907         1.477203
 H        -0.756641         1.292307         2.999593
 H        -4.306077         1.024355         3.066456
 H        -4.470792         1.558492         1.247914
 H        -3.101532        -2.293428         1.963535
 H        -2.977747        -1.696994         0.272856
 H        -1.440676        -0.766279         2.712635
