19
Iteration:  4306charge 0 multiplicity 1
 O         0.431078        -0.152517         0.593391
 C        -0.803723         0.334809         0.920771
 C        -1.847627         0.809097        -0.098880
 C        -2.475896         0.955804         1.359826
 C        -1.021686         1.535611         1.772747
 C        -3.999324         0.753117         1.777520
 O        -4.171244        -0.660719         2.021698
 C        -3.010719        -1.318912         1.348041
 C        -1.906384        -0.386253         1.771771
 H         0.690267         0.112332        -0.296338
 H        -1.700041         1.780625        -0.531634
 H        -2.135234        -0.036601        -0.801903
 H        -0.879508         2.521183         1.257399
 H        -0.771452         1.623182         2.870879
 H        -4.572103         1.328753         2.482511
 H        -4.683983         0.921142         0.895777
 H        -3.118208        -2.431717         1.590690
 H        -3.108215        -1.278959         0.227807
 H        -1.756044        -0.446947         2.869061
