19
Iteration:  3256
 O         0.390490        -0.341393         0.424504
 C        -0.804646         0.338691         0.970704
 C        -1.960493         0.743819         0.024935
 C        -2.484434         1.013425         1.464462
 C        -1.066522         1.723781         1.758096
 C        -3.970993         0.749170         1.918651
 O        -4.212498        -0.582896         1.483467
 C        -2.906282        -1.392348         1.587052
 C        -1.824772        -0.339312         1.870263
 H         0.685378         0.098726        -0.418914
 H        -1.877759         1.642109        -0.650719
 H        -2.492114        -0.111687        -0.384914
 H        -0.851868         2.683837         1.251302
 H        -0.764918         1.836963         2.768226
 H        -4.039193         0.806990         3.050721
 H        -4.782493         1.326526         1.467497
 H        -2.808977        -2.221137         2.283698
 H        -2.722536        -1.809798         0.603539
 H        -1.643590        -0.231259         2.972050
