19
Iteration:  3676charge 0 multiplicity 1
 O         0.472976        -0.191686         0.472496
 C        -0.798269         0.330396         0.885934
 C        -1.924154         0.777826        -0.103757
 C        -2.483655         0.865855         1.394427
 C        -1.230437         1.647047         1.868471
 C        -3.829026         0.830224         1.907336
 O        -4.204616        -0.542886         1.777989
 C        -3.066324        -1.374804         1.351286
 C        -1.826372        -0.521928         1.818228
 H         1.236021         0.303754         0.663005
 H        -1.895941         1.705360        -0.769603
 H        -2.279617        -0.052163        -0.585192
 H        -0.934819         2.638949         1.441209
 H        -1.163037         1.586208         2.949670
 H        -3.712856         1.078090         2.970884
 H        -4.584748         1.414797         1.432037
 H        -3.162270        -2.303611         1.930148
 H        -3.138271        -1.600963         0.247161
 H        -1.427554        -0.392995         2.853546
