19
Iteration:  4403
 O         0.512466        -0.090514         0.518067
 C        -0.788285         0.310502         0.836340
 C        -2.018607         0.595194         0.010421
 C        -2.491826         0.901191         1.450761
 C        -1.016315         1.618155         1.680303
 C        -3.905731         0.810494         1.994460
 O        -4.260013        -0.535295         1.526041
 C        -3.063436        -1.346195         1.524519
 C        -1.815432        -0.451039         1.848313
 H         1.184423         0.683670         0.846790
 H        -2.033136         1.320327        -0.794336
 H        -2.582649        -0.349997        -0.294790
 H        -1.018446         2.625816         1.151059
 H        -0.551844         1.880081         2.705836
 H        -3.990331         0.841664         3.066603
 H        -4.694152         1.556060         1.574480
 H        -3.368938        -2.228741         2.180736
 H        -2.979584        -1.684406         0.452006
 H        -1.474294        -0.607511         2.860818
