19
Iteration:  3891
 O         0.345703        -0.095425         0.334118
 C        -0.876903         0.244279         0.825701
 C        -2.010106         0.728572         0.056310
 C        -2.445571         0.909001         1.554570
 C        -1.152776         1.614359         1.788891
 C        -3.991669         0.853262         1.793021
 O        -4.066816        -0.531578         1.493692
 C        -2.910051        -1.351268         1.672459
 C        -1.737509        -0.431825         1.950867
 H         0.689273        -0.890918         0.943225
 H        -1.878378         1.651338        -0.617809
 H        -2.552175        -0.043054        -0.467766
 H        -1.012685         2.547302         1.225458
 H        -0.569760         1.521678         2.684905
 H        -4.551580         1.164319         2.705497
 H        -4.589304         1.424728         1.044224
 H        -3.073730        -2.248911         2.410718
 H        -2.844357        -1.982954         0.742604
 H        -1.248527        -0.613798         2.975976
