19
Iteration:  1744charge 0 multiplicity 1
 O         0.322392        -0.252147         0.391969
 C        -0.879487         0.257572         0.958855
 C        -2.041157         0.886103         0.166710
 C        -2.422365         1.066004         1.607332
 C        -0.974208         1.488513         1.912407
 C        -3.935984         0.795943         1.942646
 O        -4.123164        -0.545972         1.285216
 C        -2.955865        -1.341840         1.372708
 C        -1.878591        -0.460708         1.888339
 H         0.893324         0.355465         0.038723
 H        -1.840881         1.823246        -0.392610
 H        -2.640862         0.288554        -0.463937
 H        -0.429304         2.538103         1.499703
 H        -0.628860         1.394957         2.931387
 H        -4.139987         0.663597         3.013031
 H        -4.624862         1.486060         1.506889
 H        -3.130869        -2.086612         2.088497
 H        -2.599062        -1.884915         0.452357
 H        -1.665433        -0.824502         2.895168
