19
Iteration:  1209charge 0 multiplicity 1
 O         0.357070        -0.117939         0.413811
 C        -0.821773         0.274090         0.989289
 C        -1.900752         0.950962         0.037309
 C        -2.440635         0.995110         1.645186
 C        -0.937313         1.465663         1.952312
 C        -3.918130         0.773493         2.017392
 O        -4.295731        -0.471102         1.299367
 C        -3.020927        -1.452821         1.341833
 C        -1.888962        -0.564887         1.774814
 H         1.196861        -0.159724         1.093388
 H        -1.588716         1.943554        -0.375164
 H        -2.335255         0.331321        -0.709163
 H        -0.664469         2.420772         1.381346
 H        -0.490545         1.320950         2.847741
 H        -4.089471         0.593788         3.156763
 H        -4.576636         1.575419         1.587224
 H        -3.349651        -2.201095         2.034083
 H        -3.056308        -1.654661         0.280756
 H        -1.560463        -0.756395         2.783639
