19
Iteration:  4930
 O         0.358880        -0.216242         0.532894
 C        -0.824088         0.311292         0.963934
 C        -2.026059         0.702985         0.038086
 C        -2.445337         0.975249         1.509287
 C        -1.059277         1.630152         1.715706
 C        -3.917630         0.774511         1.838988
 O        -4.188622        -0.579270         1.653332
 C        -2.950514        -1.331376         1.321088
 C        -1.829617        -0.411569         1.886821
 H         1.005031         0.518600         0.299109
 H        -1.782641         1.608163        -0.581558
 H        -2.385828        -0.188761        -0.574650
 H        -0.953641         2.571381         1.185041
 H        -0.638780         1.690975         2.740817
 H        -4.008995         1.052815         2.873581
 H        -4.510134         1.546898         1.327323
 H        -3.076858        -2.277237         1.907496
 H        -2.881487        -1.594749         0.231104
 H        -1.532270        -0.734779         2.933546
