19
Iteration:  4390
 O         0.516133        -0.096248         0.500694
 C        -0.784094         0.275015         0.917295
 C        -1.988819         0.663867        -0.075838
 C        -2.440900         0.956385         1.473354
 C        -1.061457         1.614192         1.647015
 C        -3.905860         0.802695         1.923842
 O        -4.263710        -0.575277         1.634908
 C        -3.047274        -1.387967         1.470732
 C        -1.931756        -0.440065         1.920208
 H         1.068479         0.657457         0.532948
 H        -1.750496         1.680650        -0.461843
 H        -2.460036         0.007545        -0.835984
 H        -0.860085         2.531966         1.053400
 H        -0.617740         1.526646         2.672271
 H        -3.809394         0.954429         3.007442
 H        -4.728387         1.443105         1.454481
 H        -3.004421        -2.187115         2.229175
 H        -2.983819        -1.885603         0.490379
 H        -1.641324        -0.512426         2.970990
