19
Iteration:  1682
 O         0.518635        -0.125745         0.519673
 C        -0.792337         0.271376         0.886750
 C        -1.901887         0.853470         0.013528
 C        -2.471231         1.005354         1.499207
 C        -1.012863         1.449503         1.911441
 C        -3.920366         0.807854         2.002925
 O        -4.276235        -0.525321         1.543708
 C        -3.025987        -1.380899         1.285114
 C        -2.007187        -0.487783         1.794216
 H         0.865023         0.340514        -0.270506
 H        -1.553174         1.767180        -0.536615
 H        -2.426327         0.173467        -0.634223
 H        -0.642947         2.374183         1.604732
 H        -0.709093         1.116483         2.860517
 H        -3.955098         0.768047         3.118412
 H        -4.696078         1.504103         1.655883
 H        -3.115016        -2.314232         1.964035
 H        -2.969908        -1.722049         0.256801
 H        -1.762755        -0.529898         2.851489
