19
Iteration:  2827
 O         0.436175        -0.235467         0.577120
 C        -0.851966         0.338656         0.920210
 C        -1.948394         0.818005        -0.018045
 C        -2.466191         1.115244         1.447819
 C        -1.076908         1.541038         1.895371
 C        -3.970686         0.769428         1.688795
 O        -4.110645        -0.608519         1.851564
 C        -3.010670        -1.340221         1.360777
 C        -1.871016        -0.504135         1.735150
 H         0.704485         0.346642        -0.288576
 H        -1.687346         1.703185        -0.561586
 H        -2.515728         0.193268        -0.779842
 H        -0.714478         2.411206         1.408297
 H        -0.655639         1.502295         2.976278
 H        -4.197405         1.165485         2.675818
 H        -4.704143         1.246136         1.010553
 H        -3.014699        -2.364067         1.829249
 H        -3.126112        -1.598324         0.299612
 H        -1.611549        -0.677064         2.828920
