19
Iteration:  2175charge 0 multiplicity 1
 O         0.374920        -0.212144         0.398216
 C        -0.820674         0.313250         0.957409
 C        -1.778689         1.008654         0.011937
 C        -2.442693         0.947019         1.444979
 C        -1.171191         1.506580         2.060047
 C        -3.959238         0.822608         1.812316
 O        -4.154032        -0.611676         1.788035
 C        -3.085997        -1.313568         1.223651
 C        -1.809303        -0.556697         1.679732
 H         0.874620        -0.606004         1.036188
 H        -1.665391         2.101593        -0.282868
 H        -2.320765         0.448043        -0.710529
 H        -0.906876         2.494198         1.842194
 H        -0.495807         1.291755         2.959950
 H        -4.160490         1.225904         2.850251
 H        -4.555934         1.235119         0.982422
 H        -3.267090        -2.249816         1.793701
 H        -3.252062        -1.405418         0.084215
 H        -1.637621        -0.805516         2.784912
