19
Iteration:  1180charge 0 multiplicity 1
 O         0.371043        -0.243900         0.347220
 C        -0.776408         0.314352         0.950032
 C        -2.090462         0.875318         0.108460
 C        -2.412344         0.881297         1.661260
 C        -1.102167         1.486589         2.095920
 C        -3.818944         0.824353         1.924493
 O        -4.166449        -0.411533         1.246341
 C        -2.967554        -1.346547         1.352127
 C        -1.862898        -0.501127         1.783601
 H         1.391097        -0.070208         0.690643
 H        -2.155864         1.863653        -0.335647
 H        -2.619638         0.086843        -0.476253
 H        -1.104779         2.526930         1.825436
 H        -0.620748         1.192475         3.143088
 H        -4.026880         0.762462         2.954941
 H        -4.421417         1.645075         1.489899
 H        -3.348809        -2.195706         2.050040
 H        -3.001181        -1.704378         0.341621
 H        -1.661531        -0.743083         2.892358
