19
Iteration:  3578
 O         0.282711        -0.284988         0.353118
 C        -0.780399         0.415034         0.948209
 C        -1.956753         0.765391         0.094850
 C        -2.407165         1.019210         1.546833
 C        -0.993135         1.628835         1.866012
 C        -3.930237         0.757283         1.875350
 O        -4.212943        -0.629240         1.359148
 C        -2.915592        -1.369206         1.542743
 C        -1.856214        -0.354735         1.972703
 H         0.295569        -0.140302        -0.513056
 H        -1.946635         1.669366        -0.607017
 H        -2.236088        -0.010837        -0.537929
 H        -0.899147         2.671477         1.529620
 H        -0.637858         1.637902         2.874853
 H        -4.122898         0.709200         2.959104
 H        -4.672765         1.345636         1.372156
 H        -3.093858        -2.084407         2.287657
 H        -2.783788        -1.988986         0.624575
 H        -1.611490        -0.240480         3.049755
