19
Iteration:  4934charge 0 multiplicity 1
 O         0.353318        -0.258854         0.556513
 C        -0.826802         0.347363         0.972899
 C        -1.996158         0.731164         0.027216
 C        -2.455183         0.928802         1.555824
 C        -1.095460         1.616591         1.645488
 C        -3.944537         0.801739         1.882893
 O        -4.194208        -0.567014         1.634604
 C        -2.905677        -1.339654         1.324149
 C        -1.811229        -0.411238         1.865973
 H         1.058255         0.472973         0.353300
 H        -1.765370         1.576199        -0.555546
 H        -2.480588         0.008727        -0.652639
 H        -0.946097         2.621596         1.178291
 H        -0.724358         1.622403         2.685667
 H        -4.019481         1.087890         2.983039
 H        -4.609947         1.460820         1.276259
 H        -2.962772        -2.299900         1.843021
 H        -2.909112        -1.533676         0.285803
 H        -1.437456        -0.622175         2.860638
