19
Iteration:  1541
 O         0.514273        -0.138275         0.567761
 C        -0.760022         0.295198         0.927941
 C        -1.918937         0.821080         0.035951
 C        -2.463772         0.970158         1.473864
 C        -1.049714         1.431779         1.938645
 C        -3.927740         0.838527         1.979542
 O        -4.339297        -0.511626         1.666245
 C        -3.063631        -1.368459         1.198301
 C        -1.853485        -0.486451         1.638964
 H         1.004157         0.691354         0.073599
 H        -1.755930         1.720646        -0.580418
 H        -2.435026         0.128474        -0.586261
 H        -0.762401         2.450794         1.602855
 H        -0.667896         1.112669         3.041600
 H        -3.999523         0.935083         3.043287
 H        -4.593794         1.591441         1.483729
 H        -3.129283        -2.373333         1.743409
 H        -3.220302        -1.649018         0.184988
 H        -1.461878        -0.945722         2.538253
