19
Iteration:   477
 O         0.504124        -0.073454         0.630207
 C        -0.774000         0.358984         0.937403
 C        -1.820430         0.818406        -0.068122
 C        -2.488122         0.954900         1.455077
 C        -1.071309         1.472922         1.886914
 C        -3.859334         0.869978         1.956270
 O        -4.207232        -0.529413         1.710222
 C        -3.175056        -1.467547         1.253621
 C        -1.959706        -0.550220         1.674780
 H         0.758059        -0.041031        -0.403419
 H        -1.703379         1.876877        -0.455769
 H        -2.258531         0.124725        -0.745155
 H        -0.696661         2.455540         1.414638
 H        -0.865592         1.216811         2.966267
 H        -3.932259         1.100934         3.102602
 H        -4.597199         1.419118         1.296888
 H        -3.392035        -2.349108         1.886253
 H        -3.294479        -1.767274         0.236884
 H        -1.656438        -0.591638         2.715567
