19
Iteration:  3774charge 0 multiplicity 1
 O         0.526082        -0.115214         0.480561
 C        -0.750620         0.272392         0.904790
 C        -1.919666         0.829190        -0.084246
 C        -2.482411         0.987776         1.339525
 C        -1.168805         1.560151         1.843864
 C        -3.888651         0.796241         1.767664
 O        -4.205572        -0.656579         1.915046
 C        -3.037415        -1.356054         1.433024
 C        -1.914515        -0.432846         1.861975
 H         0.295945        -0.530449        -0.451946
 H        -1.666396         1.866434        -0.501552
 H        -2.408153         0.150531        -0.742160
 H        -0.726483         2.445745         1.321571
 H        -0.984484         1.487352         2.958074
 H        -4.062795         1.305006         2.728335
 H        -4.537347         1.234934         1.017707
 H        -3.002170        -2.334886         1.896911
 H        -3.074275        -1.454946         0.329201
 H        -1.678908        -0.419714         2.932448
