19
Iteration:  4550charge 0 multiplicity 1
 O         0.575542        -0.006228         0.534669
 C        -0.827789         0.267938         0.888515
 C        -1.829761         0.712710        -0.126142
 C        -2.506932         1.011393         1.288647
 C        -1.111218         1.518802         1.707237
 C        -3.856386         0.817830         1.963204
 O        -4.279186        -0.574441         1.849675
 C        -3.140833        -1.439907         1.440797
 C        -1.938679        -0.455769         1.750963
 H         1.021203         0.144579         1.279389
 H        -1.813605         1.657530        -0.688151
 H        -2.327050        -0.029634        -0.713573
 H        -0.680452         2.365130         1.157368
 H        -0.952927         1.617432         2.789299
 H        -3.764544         0.991754         3.024663
 H        -4.631196         1.327874         1.527286
 H        -3.152388        -2.435037         2.007156
 H        -3.073865        -1.714754         0.361062
 H        -1.496820        -0.541185         2.750513
