19
Iteration:  2576charge 0 multiplicity 1
 O         0.557357        -0.069677         0.634306
 C        -0.766148         0.302703         0.852716
 C        -1.958406         0.856273        -0.016607
 C        -2.432579         0.950476         1.433313
 C        -1.056466         1.522955         1.881887
 C        -3.870269         0.791716         1.942051
 O        -4.310422        -0.566749         1.666361
 C        -3.129580        -1.391527         1.311316
 C        -1.863190        -0.517164         1.724147
 H         0.714951        -0.451390        -0.309463
 H        -1.926943         1.884353        -0.473171
 H        -2.539478         0.136202        -0.598021
 H        -0.904613         2.615104         1.562805
 H        -0.604268         1.324384         2.936044
 H        -3.923177         1.085948         3.022523
 H        -4.534791         1.488183         1.408163
 H        -3.265445        -2.396905         1.711133
 H        -3.164075        -1.662609         0.220915
 H        -1.547541        -0.736831         2.773176
