19
Iteration:  1829charge 0 multiplicity 1
 O         0.461666        -0.095214         0.591209
 C        -0.810843         0.203519         0.927075
 C        -1.851796         0.879527         0.070487
 C        -2.493504         0.938282         1.479781
 C        -1.039616         1.461774         1.873160
 C        -3.900447         0.843892         1.995128
 O        -4.268534        -0.592758         1.634120
 C        -3.041605        -1.332693         1.215027
 C        -1.949504        -0.461830         1.687553
 H         0.638951         0.357343        -0.375396
 H        -1.522405         1.733587        -0.586786
 H        -2.344554         0.207909        -0.652664
 H        -0.579067         2.342844         1.453888
 H        -0.486265         1.261380         2.793364
 H        -3.858458         0.795635         3.098795
 H        -4.524137         1.689935         1.655571
 H        -3.160683        -2.319108         1.812599
 H        -3.136398        -1.476742         0.095222
 H        -1.741079        -0.691211         2.732767
