19
Iteration:  1814
 O         0.448146        -0.136730         0.595630
 C        -0.854334         0.334039         0.897878
 C        -1.950813         0.899415        -0.024427
 C        -2.398860         0.952696         1.506835
 C        -1.014540         1.437152         1.891385
 C        -3.837870         0.766490         1.965845
 O        -4.259663        -0.520560         1.552506
 C        -3.121538        -1.351131         1.297806
 C        -1.848089        -0.534836         1.758058
 H         0.727881         0.160821        -0.244595
 H        -1.736408         1.939841        -0.291715
 H        -2.513813         0.279632        -0.802241
 H        -0.849984         2.467918         1.619311
 H        -0.817985         1.274887         3.011883
 H        -3.864458         0.957365         3.062596
 H        -4.686305         1.330958         1.489505
 H        -3.155925        -2.311691         1.830527
 H        -3.053875        -1.591271         0.264669
 H        -1.419534        -0.752538         2.774475
