19
Iteration:    60
 O         0.540192        -0.058295         0.460785
 C        -0.713722         0.328878         0.908779
 C        -1.802825         0.774354        -0.087722
 C        -2.465571         0.916247         1.364718
 C        -1.100202         1.545093         1.785742
 C        -3.857048         0.822465         1.914615
 O        -4.326557        -0.584491         1.799209
 C        -3.179042        -1.437790         1.395390
 C        -1.989599        -0.449946         1.788905
 H         1.157642         0.009384         1.294176
 H        -1.489247         1.722098        -0.644075
 H        -2.100841        -0.034593        -0.878317
 H        -0.829340         2.539612         1.347033
 H        -0.899173         1.613763         2.871403
 H        -3.759569         1.018475         3.077163
 H        -4.641774         1.454120         1.379042
 H        -3.249398        -2.403225         2.012148
 H        -3.270538        -1.709679         0.295535
 H        -1.710696        -0.630338         2.841467
