19
Iteration:  2884charge 0 multiplicity 1
 O         0.497425        -0.015482         0.505098
 C        -0.803994         0.260215         0.876106
 C        -1.922401         0.680881        -0.112957
 C        -2.430864         0.952236         1.417689
 C        -1.112671         1.530665         1.837491
 C        -3.851286         0.876330         1.905005
 O        -4.286323        -0.597106         1.767203
 C        -3.079693        -1.392235         1.378592
 C        -1.858205        -0.452284         1.695391
 H         0.976418        -0.164395         1.287637
 H        -1.642330         1.655462        -0.473719
 H        -2.446009        -0.024609        -0.728378
 H        -0.829313         2.544258         1.444611
 H        -0.892322         1.442294         2.973968
 H        -3.932064         1.006332         2.991747
 H        -4.531880         1.486800         1.316492
 H        -2.927380        -2.000490         2.236697
 H        -3.259062        -1.900946         0.392530
 H        -1.851423        -0.426159         2.829829
