19
Iteration:  4225
 O         0.480117        -0.256402         0.428727
 C        -0.837646         0.322586         0.947000
 C        -2.119317         0.717520         0.039473
 C        -2.515308         0.952513         1.493635
 C        -1.037408         1.649206         1.724518
 C        -3.967566         0.804027         1.985552
 O        -4.129230        -0.567799         1.417283
 C        -2.912996        -1.355840         1.542109
 C        -1.888187        -0.345736         1.893477
 H         1.239041         0.389610         0.558763
 H        -2.030770         1.516374        -0.755329
 H        -2.685968        -0.095801        -0.371617
 H        -0.877940         2.564574         1.112145
 H        -0.524501         1.553966         2.683736
 H        -4.053328         0.609424         3.008175
 H        -4.724844         1.414146         1.488048
 H        -3.149792        -2.002729         2.359353
 H        -2.638442        -1.915360         0.586348
 H        -1.494330        -0.494076         2.879841
