19
Iteration:  2528charge 0 multiplicity 1
 O         0.442490        -0.263938         0.355426
 C        -0.727754         0.376015         0.931644
 C        -1.938527         0.923108        -0.010168
 C        -2.455849         0.947344         1.540624
 C        -1.118298         1.575257         2.044649
 C        -3.916147         0.814043         1.764930
 O        -4.239035        -0.650301         1.785883
 C        -3.010889        -1.318761         1.264729
 C        -1.905199        -0.448135         1.708567
 H         1.005417        -0.491129         1.246660
 H        -1.593461         1.820290        -0.407428
 H        -2.407265         0.144964        -0.602166
 H        -0.699434         2.586000         1.756696
 H        -1.054543         1.366296         3.077799
 H        -4.135387         1.168030         2.770783
 H        -4.511977         1.442663         1.053481
 H        -2.884125        -2.387517         1.553137
 H        -3.049207        -1.390583         0.201553
 H        -1.722587        -0.774381         2.749063
