19
Iteration:  2810
 O         0.371287        -0.205527         0.588805
 C        -0.816656         0.309107         0.932815
 C        -1.921952         0.947235        -0.014575
 C        -2.493037         0.859126         1.358464
 C        -1.068489         1.530686         1.847064
 C        -3.945820         0.892683         1.761649
 O        -4.149586        -0.630655         1.854250
 C        -2.918232        -1.393859         1.362802
 C        -1.886604        -0.420622         1.773711
 H         0.391956        -0.338370        -0.465073
 H        -1.701988         1.937627        -0.535996
 H        -2.307003         0.276077        -0.757104
 H        -0.715872         2.609529         1.727348
 H        -0.884208         1.380169         2.910188
 H        -4.391507         1.395907         2.657614
 H        -4.485072         1.239428         0.863870
 H        -2.989074        -2.404320         1.800129
 H        -2.970784        -1.653443         0.266418
 H        -1.549259        -0.474957         2.800312
