19
Iteration:  3473charge 0 multiplicity 1
 O         0.494414        -0.097661         0.506881
 C        -0.824727         0.321431         0.884529
 C        -1.946759         0.792642        -0.066126
 C        -2.459631         0.929346         1.410815
 C        -1.110684         1.598145         1.767209
 C        -3.891033         0.842438         1.829444
 O        -4.206358        -0.556152         1.887578
 C        -3.089618        -1.404715         1.390913
 C        -1.845469        -0.575200         1.725069
 H         1.091160         0.025764         1.332171
 H        -1.757204         1.726384        -0.561956
 H        -2.465641         0.088112        -0.641120
 H        -0.758681         2.488662         1.239422
 H        -0.818423         1.498428         2.819372
 H        -4.120829         1.260744         2.809330
 H        -4.608503         1.296002         1.079528
 H        -3.240035        -2.387083         1.926930
 H        -3.224376        -1.537481         0.323676
 H        -1.357830        -0.761931         2.665915
