19
Iteration:  1777charge 0 multiplicity 1
 O         0.345726        -0.271176         0.415010
 C        -0.760106         0.330391         0.923816
 C        -1.958074         0.881855         0.081618
 C        -2.451030         0.980413         1.611314
 C        -1.048422         1.559302         1.983357
 C        -3.920340         0.764071         1.926837
 O        -4.189865        -0.527164         1.383298
 C        -3.017446        -1.302657         1.388309
 C        -1.817749        -0.545067         1.807171
 H         0.851614         0.293015        -0.228503
 H        -1.844856         1.907309        -0.269511
 H        -2.461758         0.252825        -0.605463
 H        -0.796418         2.632251         1.563553
 H        -0.827846         1.408017         3.007498
 H        -4.161539         0.791750         2.997493
 H        -4.579566         1.431984         1.410445
 H        -3.296086        -2.039525         2.076890
 H        -2.901444        -1.808300         0.404739
 H        -1.464774        -0.834469         2.797724
