19
Iteration:  3529
 O         0.426623        -0.194019         0.582922
 C        -0.805385         0.373746         0.866590
 C        -2.010298         0.793201        -0.019307
 C        -2.412735         0.835240         1.447884
 C        -1.144415         1.598885         1.775497
 C        -3.828336         0.807249         1.935704
 O        -4.250404        -0.554961         1.646175
 C        -3.026650        -1.363351         1.448800
 C        -1.821191        -0.466000         1.713012
 H         1.042466         0.647636         0.307744
 H        -2.032341         1.669115        -0.594621
 H        -2.457078        -0.036264        -0.633507
 H        -0.880836         2.511235         1.250636
 H        -0.734874         1.621740         2.820731
 H        -3.776038         1.033334         3.004729
 H        -4.486369         1.543930         1.407838
 H        -3.043016        -2.229926         2.203468
 H        -3.248710        -1.817115         0.501208
 H        -1.285290        -0.627764         2.652972
