19
Iteration:  1854
 O         0.522993        -0.221023         0.538414
 C        -0.726510         0.342419         0.928930
 C        -1.900316         0.882905         0.032388
 C        -2.495687         0.901602         1.478722
 C        -1.130583         1.535256         1.961574
 C        -3.876147         0.796958         1.893987
 O        -4.240056        -0.576410         1.725680
 C        -3.163383        -1.314422         1.185664
 C        -1.842072        -0.488838         1.739760
 H         0.702415         0.201485        -0.395789
 H        -1.686238         1.773943        -0.521788
 H        -2.277211         0.195612        -0.670766
 H        -0.880784         2.643068         1.803255
 H        -0.870761         1.274093         2.926345
 H        -3.945541         1.016914         2.960109
 H        -4.489894         1.487295         1.366377
 H        -3.288895        -2.312916         1.520944
 H        -3.376923        -1.243344         0.075439
 H        -1.461145        -0.867600         2.671841
