19
Iteration:  4261
 O         0.444642        -0.106216         0.564485
 C        -0.809044         0.366993         0.881958
 C        -1.931137         0.774250        -0.123510
 C        -2.489683         0.791802         1.409177
 C        -1.174567         1.544293         1.752450
 C        -3.845584         0.845942         1.877739
 O        -4.239886        -0.556064         1.682968
 C        -3.026976        -1.365454         1.535483
 C        -1.824544        -0.520795         1.801980
 H         0.962172         0.618313         0.154851
 H        -1.757996         1.742721        -0.619706
 H        -2.454193         0.027671        -0.774385
 H        -0.980791         2.566880         1.291421
 H        -0.733347         1.574810         2.810609
 H        -3.787641         1.133307         2.957156
 H        -4.503410         1.682131         1.537990
 H        -2.982237        -2.213741         2.295096
 H        -3.041791        -1.919679         0.535601
 H        -1.449932        -0.581383         2.833246
