19
Iteration:  4967charge 0 multiplicity 1
 O         0.385225        -0.427891         0.648423
 C        -0.812750         0.352523         0.887033
 C        -2.059735         0.896228        -0.075749
 C        -2.479376         1.044237         1.407402
 C        -1.143510         1.718100         1.798389
 C        -3.813004         0.707837         1.899794
 O        -4.154511        -0.613990         1.585915
 C        -2.943856        -1.393316         1.470367
 C        -1.852799        -0.327563         1.719136
 H         1.083620         0.202068         0.125685
 H        -1.784525         1.765370        -0.632859
 H        -2.708277         0.145273        -0.527589
 H        -0.890818         2.782881         1.500696
 H        -1.003680         1.453763         2.851099
 H        -3.687075         0.793412         3.031802
 H        -4.761683         1.193919         1.647461
 H        -2.831736        -2.087277         2.303367
 H        -3.014319        -1.893790         0.536009
 H        -1.501072        -0.384117         2.738828
