19
Iteration:  3829
 O         0.438257        -0.246420         0.555338
 C        -0.803536         0.265304         0.820152
 C        -2.071042         0.735011        -0.018811
 C        -2.501767         0.889160         1.429693
 C        -1.225350         1.623092         1.723368
 C        -3.834520         0.836587         1.986927
 O        -4.166094        -0.520445         1.532548
 C        -2.910570        -1.369634         1.499743
 C        -1.822510        -0.414084         1.860717
 H         0.870155         0.617362         0.353086
 H        -1.962308         1.667880        -0.657226
 H        -2.524390         0.057778        -0.694455
 H        -1.098781         2.668973         1.364976
 H        -0.708347         1.604388         2.724695
 H        -3.719504         0.924343         3.101271
 H        -4.494953         1.616914         1.624445
 H        -3.006316        -2.071791         2.299998
 H        -2.891211        -1.909185         0.561101
 H        -1.456043        -0.415603         2.892702
