19
Iteration:  3526charge 0 multiplicity 1
 O         0.445003        -0.183933         0.567916
 C        -0.789725         0.353803         0.883354
 C        -2.005961         0.757397        -0.022457
 C        -2.423753         0.869914         1.419631
 C        -1.143011         1.623028         1.789031
 C        -3.833724         0.808993         1.947792
 O        -4.248965        -0.550823         1.666438
 C        -3.058473        -1.370094         1.424371
 C        -1.801438        -0.483391         1.703306
 H         1.012060         0.605661         0.380794
 H        -1.903099         1.734373        -0.670087
 H        -2.424764        -0.066962        -0.539130
 H        -0.921999         2.566873         1.256461
 H        -0.778324         1.576455         2.810466
 H        -3.819716         0.974351         3.062558
 H        -4.605311         1.483976         1.480151
 H        -2.988293        -2.173454         2.192997
 H        -3.331362        -1.822485         0.456502
 H        -1.371566        -0.558417         2.682894
