19
Iteration:  4047
 O         0.387277        -0.305347         0.505049
 C        -0.783882         0.324855         0.798781
 C        -1.940057         0.799220        -0.093081
 C        -2.528255         0.937339         1.468605
 C        -1.148424         1.653259         1.813769
 C        -4.070651         0.808314         1.650384
 O        -4.090579        -0.598619         1.980908
 C        -2.918922        -1.312758         1.503171
 C        -1.754874        -0.414240         1.731090
 H         0.945456         0.343405         0.662298
 H        -1.828501         1.773724        -0.571687
 H        -2.477205         0.105838        -0.822619
 H        -0.793521         2.620912         1.578820
 H        -0.959353         1.490180         2.883747
 H        -4.637247         1.373048         2.447644
 H        -4.587002         0.950947         0.700365
 H        -2.981270        -2.103776         2.289912
 H        -3.101776        -1.768561         0.477847
 H        -1.249475        -0.595670         2.718351
