19
Iteration:   770charge 0 multiplicity 1
 O         0.434121        -0.029469         0.516241
 C        -0.848725         0.238269         0.952078
 C        -1.899876         0.900344        -0.003317
 C        -2.437777         0.966028         1.500813
 C        -1.024333         1.482439         1.957106
 C        -3.841358         0.865734         1.918131
 O        -4.253493        -0.548163         1.606094
 C        -3.091080        -1.361308         1.244991
 C        -1.908972        -0.635671         1.699813
 H         0.815329        -0.938020         0.603484
 H        -1.402034         1.804956        -0.389114
 H        -2.494567         0.387713        -0.780079
 H        -0.588312         2.396046         1.648916
 H        -0.731557         1.501002         3.063918
 H        -3.919540         0.999533         3.084665
 H        -4.561346         1.516134         1.405891
 H        -3.105660        -2.370933         1.785408
 H        -3.207699        -1.457703         0.182444
 H        -1.739623        -0.775402         2.801634
