19
Iteration:   905
 O         0.441402        -0.079991         0.395287
 C        -0.811866         0.252361         0.914781
 C        -1.877261         0.833661         0.056597
 C        -2.457690         0.948934         1.541318
 C        -1.024647         1.461749         1.979479
 C        -3.903705         0.802959         1.999521
 O        -4.299981        -0.472288         1.437695
 C        -3.052084        -1.326233         1.310012
 C        -1.861260        -0.555853         1.763046
 H         1.109265        -0.475717         0.958333
 H        -1.588414         1.801438        -0.432660
 H        -2.378479         0.163498        -0.678495
 H        -0.963847         2.552959         1.654318
 H        -0.853840         1.346118         2.999263
 H        -4.030087         0.859346         3.158002
 H        -4.616960         1.599957         1.526533
 H        -3.244275        -2.050230         2.159942
 H        -2.884682        -1.844738         0.303481
 H        -1.619273        -0.835861         2.834559
