19
Iteration:  4869charge 0 multiplicity 1
 O         0.542880        -0.030938         0.552844
 C        -0.747550         0.319618         0.863288
 C        -1.923300         0.938295        -0.059868
 C        -2.448902         0.953373         1.408452
 C        -1.089071         1.531215         1.820544
 C        -3.839164         0.877131         1.809225
 O        -4.278261        -0.583961         1.661180
 C        -3.151254        -1.565829         1.659611
 C        -1.886685        -0.530584         1.701930
 H         0.442898        -0.589232        -0.364604
 H        -1.643407         1.804164        -0.597520
 H        -2.451459         0.303486        -0.755238
 H        -0.928075         2.565302         1.465502
 H        -0.872430         1.429319         2.892562
 H        -4.079970         0.972031         2.877943
 H        -4.420303         1.439997         1.096345
 H        -3.216095        -2.108651         2.601495
 H        -3.276942        -2.292859         0.871275
 H        -1.419604        -0.671616         2.655605
