19
Iteration:  3672
 O         0.482167        -0.193113         0.468462
 C        -0.781982         0.307231         0.885775
 C        -1.962428         0.808643        -0.055021
 C        -2.488407         0.927937         1.390292
 C        -1.220720         1.607411         1.841367
 C        -3.803934         0.828492         1.916257
 O        -4.209234        -0.541045         1.724383
 C        -3.053430        -1.405225         1.399631
 C        -1.856908        -0.510378         1.818980
 H         1.367545         0.428370         0.591598
 H        -1.969075         1.669677        -0.700533
 H        -2.280715        -0.124350        -0.747842
 H        -0.933089         2.613736         1.418844
 H        -1.177755         1.709009         2.972342
 H        -3.648699         1.073962         3.012508
 H        -4.583537         1.426175         1.408389
 H        -3.038197        -2.435168         1.947921
 H        -3.161582        -1.601731         0.325313
 H        -1.596524        -0.501974         2.921313
