19
Iteration:  1202charge 0 multiplicity 1
 O         0.349915        -0.151942         0.409372
 C        -0.873001         0.259860         0.921286
 C        -1.918527         0.927323         0.108923
 C        -2.449743         0.974516         1.669760
 C        -1.018732         1.495386         1.947044
 C        -3.892215         0.775652         2.018287
 O        -4.233977        -0.445927         1.272030
 C        -3.038690        -1.398395         1.327438
 C        -1.807092        -0.564347         1.782813
 H         1.110725        -0.008384         0.971389
 H        -1.504394         1.843010        -0.287479
 H        -2.370634         0.270518        -0.685961
 H        -0.569521         2.345966         1.493507
 H        -0.713361         1.350484         3.060482
 H        -4.063526         0.791466         3.070884
 H        -4.552589         1.529312         1.555900
 H        -3.325540        -2.274834         2.043455
 H        -3.056003        -1.812906         0.304584
 H        -1.508216        -0.818810         2.850698
