19
Iteration:  4849charge 0 multiplicity 1
 O         0.528964        -0.038542         0.516389
 C        -0.792785         0.279493         0.887337
 C        -1.966188         0.794627        -0.048669
 C        -2.475759         0.943428         1.422099
 C        -1.021330         1.519483         1.807614
 C        -3.972859         0.805667         1.906790
 O        -4.231814        -0.580097         1.608247
 C        -3.033065        -1.358001         1.539233
 C        -1.900752        -0.417157         1.757951
 H         0.570385        -1.040555         0.480778
 H        -1.840355         1.764612        -0.669947
 H        -2.494787         0.069455        -0.662732
 H        -0.672514         2.477284         1.383054
 H        -0.672734         1.321179         2.818631
 H        -3.884002         1.007404         3.007546
 H        -4.712146         1.377511         1.338053
 H        -3.061495        -2.170805         2.277977
 H        -3.051299        -1.894582         0.532494
 H        -1.647530        -0.528350         2.832130
