19
Iteration:  3234
 O         0.325502        -0.247450         0.545241
 C        -0.917617         0.310710         0.896117
 C        -2.000558         0.658872        -0.066951
 C        -2.449694         0.900615         1.425234
 C        -1.266322         1.702432         1.732002
 C        -3.777703         0.844469         1.964341
 O        -4.109153        -0.507235         1.541479
 C        -2.942380        -1.363081         1.502471
 C        -1.759418        -0.436737         1.869405
 H         0.996850         0.313548         0.150342
 H        -1.728215         1.651961        -0.542934
 H        -2.574216        -0.065294        -0.600952
 H        -0.944741         2.647449         1.317384
 H        -0.966383         1.645754         2.735487
 H        -3.751399         1.029164         3.090878
 H        -4.564225         1.419535         1.470007
 H        -2.996246        -2.156498         2.249956
 H        -2.822447        -1.895769         0.557836
 H        -1.417316        -0.639892         2.912872
