19
Iteration:  1847
 O         0.550929        -0.201690         0.534833
 C        -0.740480         0.335512         0.954387
 C        -1.897146         0.855177        -0.019196
 C        -2.473496         0.951160         1.479395
 C        -1.052468         1.515375         1.948623
 C        -3.901037         0.806221         1.977690
 O        -4.259339        -0.556439         1.705315
 C        -3.134474        -1.346929         1.147836
 C        -1.902397        -0.504004         1.751321
 H         0.634787         0.307044        -0.434015
 H        -1.691188         1.834284        -0.510618
 H        -2.385506         0.138190        -0.792552
 H        -0.906339         2.545442         1.625936
 H        -1.030674         1.387802         3.149616
 H        -3.977985         1.085538         3.047802
 H        -4.696513         1.355774         1.367192
 H        -3.172180        -2.385338         1.523632
 H        -3.265789        -1.367923         0.094495
 H        -1.616573        -0.839335         2.817804
