19
Iteration:  4417charge 0 multiplicity 1
 O         0.478882        -0.098906         0.503836
 C        -0.808416         0.344565         0.889987
 C        -2.106997         0.544881        -0.010859
 C        -2.429953         0.904799         1.554750
 C        -1.161413         1.633794         1.673719
 C        -3.860640         0.810551         1.992871
 O        -4.236097        -0.431821         1.444370
 C        -3.001629        -1.389763         1.526694
 C        -1.767842        -0.463614         1.812822
 H         1.154046         0.314027         1.040788
 H        -2.154304         1.391765        -0.715672
 H        -2.393205        -0.358496        -0.559400
 H        -0.846350         2.523438         1.062457
 H        -0.811900         1.478649         2.710970
 H        -3.971269         0.927354         3.095122
 H        -4.481379         1.562595         1.542309
 H        -2.981132        -2.066266         2.456290
 H        -3.057375        -2.072855         0.644783
 H        -1.368671        -0.539874         2.863377
