19
Iteration:  3132charge 0 multiplicity 1
 O         0.440051        -0.309801         0.575143
 C        -0.789953         0.280863         0.900408
 C        -1.906480         0.866054        -0.029580
 C        -2.463305         1.018907         1.408187
 C        -1.119828         1.685419         1.808630
 C        -4.004894         0.813397         1.684543
 O        -4.157141        -0.711163         2.020723
 C        -2.975544        -1.340424         1.385891
 C        -1.866987        -0.380373         1.698163
 H         0.869253         0.041813        -0.359505
 H        -1.733972         1.852942        -0.432088
 H        -2.369030         0.196527        -0.807342
 H        -0.863181         2.567651         1.202232
 H        -0.946799         1.571591         2.914814
 H        -4.435462         1.327739         2.554368
 H        -4.611836         1.075486         0.767750
 H        -2.797986        -2.329701         1.883672
 H        -3.148457        -1.481929         0.329251
 H        -1.628936        -0.536756         2.763269
