19
Iteration:  4304charge 0 multiplicity 1
 O         0.441929        -0.153340         0.596562
 C        -0.803580         0.346161         0.916144
 C        -1.854495         0.793391        -0.107760
 C        -2.460627         0.961008         1.369261
 C        -1.035214         1.530822         1.788411
 C        -3.994697         0.769530         1.764456
 O        -4.180467        -0.667431         2.017575
 C        -3.014143        -1.314210         1.354956
 C        -1.894571        -0.389510         1.765540
 H         0.742412         0.145257        -0.382643
 H        -1.695441         1.786197        -0.554259
 H        -2.183985        -0.043652        -0.765525
 H        -0.922803         2.509537         1.255716
 H        -0.777145         1.620920         2.885065
 H        -4.512185         1.314965         2.531758
 H        -4.760812         0.928341         0.938025
 H        -3.092590        -2.401269         1.632132
 H        -3.162290        -1.329867         0.211621
 H        -1.791232        -0.483667         2.836879
