19
Iteration:  4423
 O         0.448309        -0.086474         0.495981
 C        -0.823135         0.299679         0.877747
 C        -2.091536         0.552332        -0.041710
 C        -2.459657         0.907419         1.539558
 C        -1.172254         1.631284         1.683987
 C        -3.818843         0.830113         1.969895
 O        -4.197123        -0.440376         1.436113
 C        -2.963404        -1.398615         1.541088
 C        -1.775796        -0.464923         1.852615
 H         1.177001         0.111413         1.045579
 H        -2.163686         1.546731        -0.515523
 H        -2.509669        -0.262460        -0.699930
 H        -1.041210         2.630723         1.255274
 H        -0.751306         1.595732         2.723814
 H        -4.008865         0.857645         3.062831
 H        -4.509362         1.658178         1.575198
 H        -3.098778        -1.825090         2.531619
 H        -3.056449        -2.154218         0.753300
 H        -1.467015        -0.727123         2.864865
