19
Iteration:  4783
 O         0.358486        -0.271052         0.419968
 C        -0.837811         0.337571         0.845775
 C        -1.929344         0.863357        -0.005284
 C        -2.463723         0.945362         1.440621
 C        -1.035014         1.583847         1.876237
 C        -3.993413         0.774476         1.859166
 O        -4.234824        -0.605224         1.502642
 C        -2.884277        -1.335068         1.577292
 C        -1.877498        -0.359046         1.854844
 H         1.101681        -0.200380         0.937119
 H        -1.793147         1.887588        -0.484415
 H        -2.510180         0.153239        -0.647693
 H        -0.808645         2.618175         1.590403
 H        -0.642685         1.296700         2.855416
 H        -3.988405         0.756649         2.978851
 H        -4.737317         1.471035         1.460156
 H        -2.963873        -2.146674         2.297147
 H        -2.600849        -1.833522         0.585464
 H        -1.457226        -0.425206         2.871607
