19
Iteration:  3820
 O         0.463853        -0.207558         0.604281
 C        -0.812047         0.299103         0.845164
 C        -2.124370         0.708235         0.017681
 C        -2.440619         0.890752         1.441972
 C        -1.124888         1.662253         1.716178
 C        -3.807313         0.855388         1.943740
 O        -4.193082        -0.555923         1.587730
 C        -2.981787        -1.385036         1.480910
 C        -1.831386        -0.432704         1.755052
 H         1.015394         0.434484         0.114197
 H        -1.979064         1.592611        -0.602597
 H        -2.763350        -0.104409        -0.433196
 H        -1.233971         2.668446         1.291179
 H        -0.839694         1.614505         2.818376
 H        -3.786445         1.016924         3.016058
 H        -4.542870         1.540655         1.522841
 H        -3.024127        -2.226973         2.133358
 H        -2.880196        -1.812962         0.424010
 H        -1.493987        -0.403869         2.838150
