19
Iteration:  1848
 O         0.549619        -0.206478         0.533482
 C        -0.734857         0.339191         0.949159
 C        -1.899089         0.858726        -0.009186
 C        -2.483880         0.943834         1.479369
 C        -1.062267         1.522029         1.946985
 C        -3.893316         0.801264         1.964419
 O        -4.255295        -0.558457         1.707597
 C        -3.141678        -1.340910         1.150995
 C        -1.891219        -0.499833         1.755375
 H         0.625066         0.284735        -0.399678
 H        -1.681627         1.840568        -0.539662
 H        -2.375982         0.142805        -0.795457
 H        -0.914264         2.539788         1.672334
 H        -1.018312         1.366237         3.150866
 H        -3.969782         1.078399         3.043826
 H        -4.678367         1.383809         1.348691
 H        -3.194862        -2.412725         1.532880
 H        -3.310285        -1.335242         0.096685
 H        -1.575642        -0.859386         2.799042
