19
Iteration:   480charge 0 multiplicity 1
 O         0.505818        -0.057297         0.619115
 C        -0.755523         0.342028         0.934969
 C        -1.835791         0.809396        -0.061471
 C        -2.487297         0.961934         1.436499
 C        -1.073327         1.476605         1.903538
 C        -3.866717         0.878137         1.956481
 O        -4.227698        -0.538355         1.697028
 C        -3.178252        -1.441357         1.273227
 C        -1.939898        -0.545642         1.693755
 H         0.691713        -0.113158        -0.413005
 H        -1.630467         1.851091        -0.435342
 H        -2.322852         0.053100        -0.783294
 H        -0.608912         2.423299         1.492387
 H        -0.877361         1.140447         2.863257
 H        -3.950541         1.057239         3.096949
 H        -4.620991         1.433228         1.327562
 H        -3.321533        -2.336637         1.848457
 H        -3.186771        -1.781290         0.181900
 H        -1.645700        -0.679011         2.732174
