19
Iteration:   847
 O         0.396851        -0.168288         0.342446
 C        -0.787147         0.251554         0.940023
 C        -1.942870         0.954076         0.067005
 C        -2.499535         0.959629         1.567062
 C        -0.971227         1.493143         2.000747
 C        -3.949249         0.780745         1.946284
 O        -4.212984        -0.524494         1.324733
 C        -2.982736        -1.325538         1.382072
 C        -1.906886        -0.457437         1.911551
 H         0.712971        -1.173362         0.413381
 H        -1.747310         1.943150        -0.326053
 H        -2.483641         0.291708        -0.694887
 H        -0.585057         2.473560         1.650715
 H        -0.757610         1.322461         3.098611
 H        -4.070589         0.685559         3.058963
 H        -4.723680         1.463413         1.532519
 H        -3.279949        -2.180851         2.056146
 H        -2.718540        -1.770628         0.427097
 H        -1.481610        -0.551102         2.919721
