19
Iteration:  3101charge 0 multiplicity 1
 O         0.379201        -0.251670         0.619544
 C        -0.860157         0.312754         0.881686
 C        -1.925531         0.842607        -0.161247
 C        -2.462905         1.012246         1.388693
 C        -1.009563         1.650075         1.830757
 C        -3.982834         0.811749         1.726055
 O        -4.151308        -0.714654         1.949832
 C        -2.976867        -1.371876         1.418867
 C        -1.894900        -0.395940         1.751481
 H         0.882961         0.044540        -0.040355
 H        -1.840347         1.902302        -0.617954
 H        -2.354857         0.200489        -0.905294
 H        -0.584079         2.566709         1.429673
 H        -0.757435         1.504517         2.879285
 H        -4.175014         1.223173         2.742647
 H        -4.759234         1.189169         1.038571
 H        -2.862799        -2.395250         1.819781
 H        -2.949767        -1.486565         0.333691
 H        -1.562139        -0.351221         2.794580
