19
Iteration:  3247charge 0 multiplicity 1
 O         0.347127        -0.324979         0.464356
 C        -0.776139         0.294059         0.913100
 C        -1.988768         0.721157         0.011928
 C        -2.469254         1.009137         1.453953
 C        -1.156235         1.727170         1.784046
 C        -3.832941         0.800149         1.924045
 O        -4.139942        -0.607802         1.502369
 C        -2.929156        -1.379027         1.531233
 C        -1.882456        -0.345317         1.900174
 H         0.662522         0.355926        -0.186184
 H        -1.918325         1.585552        -0.722757
 H        -2.379058        -0.186668        -0.626222
 H        -1.195443         2.602218         1.172382
 H        -0.890940         1.837821         2.828317
 H        -3.820107         0.823965         3.064272
 H        -4.581352         1.498752         1.555155
 H        -3.067445        -2.094211         2.329450
 H        -2.828128        -1.847965         0.521281
 H        -1.542868        -0.301407         2.976015
