19
Iteration:  3123
 O         0.386814        -0.295623         0.609758
 C        -0.785029         0.334262         0.921270
 C        -1.863387         0.909958        -0.020437
 C        -2.523017         0.994632         1.390310
 C        -1.038547         1.592388         1.695015
 C        -4.047905         0.747653         1.744764
 O        -4.155930        -0.690964         2.004023
 C        -2.986521        -1.311861         1.373061
 C        -1.862004        -0.393062         1.730907
 H         0.789975         0.055443        -0.344855
 H        -1.450756         1.911820        -0.466532
 H        -2.161727         0.324265        -0.858268
 H        -1.012049         2.610309         1.354290
 H        -0.653094         1.672084         2.704832
 H        -4.527707         1.328777         2.571155
 H        -4.625491         0.899539         0.809029
 H        -2.847836        -2.263617         1.905014
 H        -3.042766        -1.543148         0.324789
 H        -1.554354        -0.423190         2.787014
