19
Iteration:  3507charge 0 multiplicity 1
 O         0.565029        -0.124743         0.475075
 C        -0.792606         0.299675         0.911790
 C        -1.849900         0.665081        -0.118246
 C        -2.530575         1.046942         1.362174
 C        -1.163240         1.577817         1.775994
 C        -3.907219         0.823383         2.060107
 O        -4.220524        -0.576479         1.768919
 C        -3.054483        -1.396655         1.367039
 C        -1.967032        -0.471602         1.777598
 H         1.116641         0.572136         0.636911
 H        -1.672758         1.427481        -0.777038
 H        -2.342293        -0.085608        -0.771818
 H        -0.765373         2.535295         1.423945
 H        -0.965490         1.561804         2.884493
 H        -3.654032         1.088080         3.070764
 H        -4.656082         1.524602         1.645925
 H        -3.353216        -2.395545         1.825594
 H        -3.060416        -1.578863         0.297755
 H        -1.645920        -0.682468         2.826237
