19
Iteration:  2148
 O         0.529746        -0.031250         0.425208
 C        -0.766100         0.301047         0.891343
 C        -1.885113         0.824257         0.076864
 C        -2.443803         0.912864         1.468033
 C        -1.095861         1.398820         1.989375
 C        -3.842135         0.882245         1.890552
 O        -4.289644        -0.582225         1.708684
 C        -3.126003        -1.308602         1.200862
 C        -1.936342        -0.525634         1.712873
 H         0.933848        -0.404892         1.153377
 H        -1.884819         1.785541        -0.388709
 H        -2.433796         0.036133        -0.541916
 H        -0.802154         2.485905         1.702337
 H        -0.725301         1.255375         2.996835
 H        -3.854718         1.195928         2.916925
 H        -4.516630         1.465715         1.260311
 H        -3.242190        -2.269574         1.731692
 H        -3.217713        -1.471954         0.158958
 H        -1.620367        -0.793376         2.707115
