19
Iteration:  3617
 O         0.399023        -0.250976         0.467631
 C        -0.826386         0.282928         0.849572
 C        -2.113395         0.826881         0.124453
 C        -2.484382         0.922484         1.570485
 C        -1.071137         1.643265         1.821117
 C        -3.879006         0.814209         1.900254
 O        -4.109616        -0.551345         1.327750
 C        -2.958170        -1.397342         1.547461
 C        -1.778217        -0.389480         1.876576
 H         0.550130        -0.056155        -0.523596
 H        -2.009146         1.705589        -0.477930
 H        -2.784084        -0.020497        -0.372071
 H        -0.923071         2.653240         1.357810
 H        -0.661576         1.616192         2.888905
 H        -4.035198         0.902723         3.003981
 H        -4.574181         1.537471         1.418340
 H        -2.979763        -1.944234         2.569206
 H        -2.959880        -2.180378         0.773612
 H        -1.586960        -0.528637         2.950391
