19
Iteration:  2410
 O         0.527471        -0.058422         0.482075
 C        -0.802494         0.296098         0.905825
 C        -1.989727         0.911409        -0.047845
 C        -2.456230         0.994231         1.568542
 C        -1.046956         1.433881         1.957389
 C        -3.918600         0.810930         1.991012
 O        -4.292500        -0.544201         1.483678
 C        -3.077227        -1.358136         1.324062
 C        -1.811974        -0.514336         1.721701
 H         0.887158        -0.983471         0.649829
 H        -1.744123         1.788764        -0.568984
 H        -2.615509         0.165002        -0.495502
 H        -0.500670         2.445170         1.784759
 H        -0.746516         1.077467         2.904000
 H        -4.085049         0.709924         3.078256
 H        -4.584871         1.572588         1.548078
 H        -3.136691        -2.220054         2.076969
 H        -3.201017        -1.838312         0.322316
 H        -1.461577        -0.666021         2.792733
