19
Iteration:  2045
 O         0.325813        -0.237665         0.273978
 C        -0.801638         0.306375         0.982639
 C        -2.016236         0.954505         0.165808
 C        -2.421833         1.016275         1.694143
 C        -0.910815         1.594775         1.963632
 C        -3.990088         0.824908         1.855893
 O        -4.219478        -0.581871         1.296253
 C        -2.940606        -1.406643         1.389856
 C        -1.883667        -0.525725         1.887428
 H         1.007124        -0.607450         1.042649
 H        -2.041798         1.983154        -0.325063
 H        -2.431197         0.183402        -0.444075
 H        -0.500567         2.407623         1.382272
 H        -0.450794         1.466795         3.028627
 H        -4.107225         0.726642         2.930448
 H        -4.679198         1.592641         1.464893
 H        -3.291487        -2.401518         1.885716
 H        -2.825525        -1.592050         0.272027
 H        -1.474599        -0.533792         2.952205
