19
Iteration:  1899
 O         0.416275        -0.251842         0.502961
 C        -0.778072         0.309793         0.863754
 C        -1.862506         1.015030         0.083382
 C        -2.479868         1.035022         1.476743
 C        -0.980547         1.413095         2.004019
 C        -3.968254         0.809833         1.739045
 O        -4.184087        -0.666439         1.792591
 C        -3.079414        -1.317595         1.278865
 C        -1.926359        -0.499196         1.682622
 H         1.066962         0.541739         0.283879
 H        -1.736990         1.978524        -0.328243
 H        -2.489324         0.524870        -0.658284
 H        -0.598480         2.415315         1.658353
 H        -0.663419         1.239939         3.010202
 H        -4.273978         1.188899         2.710520
 H        -4.683113         1.085818         1.006224
 H        -3.047536        -2.261935         1.754645
 H        -3.123282        -1.432710         0.127898
 H        -1.931401        -0.505616         2.774797
