19
Iteration:  1244
 O         0.511739        -0.111767         0.419800
 C        -0.782510         0.291589         0.981091
 C        -1.927106         0.924943         0.010014
 C        -2.431988         0.975539         1.536977
 C        -1.133286         1.433866         2.028817
 C        -3.897729         0.835267         1.952057
 O        -4.281150        -0.495252         1.548011
 C        -3.072192        -1.360078         1.257263
 C        -1.839934        -0.555482         1.669240
 H         0.854737        -0.937691         1.033395
 H        -1.762651         1.905396        -0.415939
 H        -2.457283         0.222566        -0.669001
 H        -0.821864         2.438657         1.844198
 H        -0.887798         1.194870         2.999946
 H        -4.158602         0.927905         3.063675
 H        -4.525160         1.606117         1.408943
 H        -3.118517        -2.373852         1.739875
 H        -3.007660        -1.641487         0.215707
 H        -1.454493        -0.882854         2.662961
