19
Iteration:  2196charge 0 multiplicity 1
 O         0.357600        -0.240855         0.410922
 C        -0.847328         0.308607         0.968248
 C        -1.841040         1.077196         0.035954
 C        -2.469392         0.990339         1.486091
 C        -0.969117         1.455005         1.976465
 C        -3.965021         0.795185         1.769969
 O        -4.224289        -0.667019         1.856664
 C        -2.971951        -1.392980         1.172735
 C        -1.927443        -0.414850         1.697989
 H         0.900245        -0.872521         1.108379
 H        -1.530860         2.151567        -0.258548
 H        -2.356242         0.581480        -0.788948
 H        -0.539939         2.375324         1.809907
 H        -0.881993         1.477472         3.160308
 H        -4.420924         1.121545         2.740529
 H        -4.353431         1.248741         0.832684
 H        -2.765401        -2.396649         1.529396
 H        -3.175519        -1.204358         0.082034
 H        -1.784696        -0.498777         2.818171
