19
Iteration:  1120
 O         0.433374        -0.134133         0.453575
 C        -0.790494         0.295505         0.870099
 C        -1.937115         0.902564         0.053861
 C        -2.434888         0.933347         1.555774
 C        -1.022107         1.460045         2.042628
 C        -3.906623         0.872271         1.946162
 O        -4.270380        -0.513185         1.447022
 C        -3.082999        -1.360590         1.293088
 C        -1.848968        -0.546359         1.704702
 H         0.970262        -0.621448         1.171923
 H        -1.824848         1.929506        -0.312125
 H        -2.446279         0.243438        -0.685315
 H        -0.893083         2.573681         1.966938
 H        -0.756393         1.090510         2.981399
 H        -3.756624         0.852446         3.083765
 H        -4.663036         1.574226         1.586849
 H        -3.174294        -2.292634         1.932083
 H        -3.006188        -1.565716         0.179142
 H        -1.449304        -0.817441         2.678342
