19
Iteration:  2235
 O         0.394541        -0.134091         0.465026
 C        -0.801042         0.301168         0.936956
 C        -1.890237         0.953663         0.004923
 C        -2.404303         0.872277         1.530178
 C        -1.128013         1.497175         1.982084
 C        -3.857621         0.852229         1.874606
 O        -4.244048        -0.558362         1.759186
 C        -3.027333        -1.345385         1.176965
 C        -1.855353        -0.555507         1.685256
 H         0.720634        -0.823316         1.099925
 H        -1.772854         1.972480        -0.271003
 H        -2.372138         0.347386        -0.813379
 H        -0.828795         2.502969         1.547350
 H        -0.771070         1.295755         2.960174
 H        -4.226410         1.317863         2.775156
 H        -4.325133         1.416154         1.038328
 H        -3.163880        -2.343400         1.595004
 H        -3.149275        -1.413818         0.082904
 H        -1.618967        -0.813526         2.712707
