19
Iteration:  1394
 O         0.467436        -0.127219         0.475108
 C        -0.821876         0.250967         0.927631
 C        -1.867052         0.927494         0.094097
 C        -2.496046         0.908562         1.524091
 C        -1.054389         1.436722         1.968388
 C        -3.889468         0.842795         1.970973
 O        -4.235583        -0.496086         1.557906
 C        -3.075754        -1.356845         1.215169
 C        -1.903895        -0.582929         1.659904
 H         1.042030         0.230004         1.162982
 H        -1.758939         1.969685        -0.292315
 H        -2.505371         0.346582        -0.589316
 H        -0.724177         2.422426         1.456917
 H        -0.600551         1.291701         2.941669
 H        -3.980290         0.889303         3.041462
 H        -4.501975         1.567191         1.510502
 H        -3.256547        -2.277487         1.731711
 H        -3.161486        -1.406651         0.102724
 H        -1.629213        -0.898053         2.678576
