19
Iteration:  3354charge 0 multiplicity 1
 O         0.501649        -0.087775         0.520830
 C        -0.784237         0.270192         0.919660
 C        -2.030191         0.718581        -0.052422
 C        -2.474309         0.920783         1.359590
 C        -1.051438         1.625761         1.681321
 C        -3.853746         0.815676         2.020635
 O        -4.238991        -0.547567         1.624892
 C        -3.095993        -1.388550         1.509137
 C        -1.902073        -0.517552         1.789799
 H         0.995989         0.572620         0.937654
 H        -1.804168         1.537440        -0.693939
 H        -2.542980        -0.076692        -0.583558
 H        -0.701029         2.459869         1.029956
 H        -0.577045         1.769609         2.648407
 H        -3.700215         1.012360         3.078902
 H        -4.644081         1.463629         1.681622
 H        -3.110487        -2.332929         2.107806
 H        -2.941307        -1.750196         0.484376
 H        -1.545109        -0.545912         2.843925
