19
Iteration:  1164
 O         0.335395        -0.256135         0.323912
 C        -0.782051         0.391342         0.940207
 C        -1.964472         0.868875         0.167786
 C        -2.429584         0.928406         1.647205
 C        -0.980542         1.504443         2.055655
 C        -3.939151         0.822098         1.953461
 O        -4.255284        -0.447874         1.254757
 C        -3.032745        -1.413754         1.302572
 C        -1.810189        -0.512464         1.844454
 H         1.101156         0.267303         0.875622
 H        -1.834257         1.799883        -0.424749
 H        -2.474494         0.100156        -0.403790
 H        -0.578776         2.527010         1.783553
 H        -0.814882         1.157516         3.007875
 H        -4.277279         0.746134         3.066206
 H        -4.489309         1.572121         1.363350
 H        -3.197101        -2.131934         2.083166
 H        -2.809810        -1.790737         0.272781
 H        -1.315832        -0.764245         2.766088
