19
Iteration:  1577charge 0 multiplicity 1
 O         0.386338        -0.281497         0.550774
 C        -0.814039         0.273671         0.978416
 C        -1.903290         1.021454         0.063443
 C        -2.463200         0.967703         1.448325
 C        -1.120511         1.524026         1.903683
 C        -3.881254         0.813555         1.814265
 O        -4.170142        -0.598159         1.852417
 C        -3.050282        -1.366322         1.129360
 C        -1.859118        -0.539053         1.637419
 H         1.120448         0.497170         0.696147
 H        -1.581043         2.013280        -0.271071
 H        -2.525294         0.459108        -0.675724
 H        -0.733614         2.498913         1.564273
 H        -0.785583         1.467421         3.041417
 H        -4.050278         1.293291         2.785442
 H        -4.626953         1.238859         1.081446
 H        -3.144324        -2.360540         1.542470
 H        -3.236023        -1.269869         0.037034
 H        -1.465374        -0.830481         2.659303
