19
Iteration:  3970charge 0 multiplicity 1
 O         0.480995        -0.124341         0.708315
 C        -0.815429         0.402384         0.840500
 C        -2.077427         0.668278        -0.100073
 C        -2.474770         0.931902         1.324121
 C        -1.166776         1.636031         1.686662
 C        -3.786117         0.812417         1.847223
 O        -4.144746        -0.554020         1.802121
 C        -3.022642        -1.413792         1.476912
 C        -1.893057        -0.462307         1.784556
 H         0.656238        -0.102049        -0.375353
 H        -1.864214         1.581294        -0.678963
 H        -2.322782        -0.142176        -0.766800
 H        -1.073092         2.638852         1.327483
 H        -0.841840         1.507216         2.723705
 H        -3.535356         0.926782         2.930405
 H        -4.599326         1.432850         1.516394
 H        -3.015963        -2.297068         2.216496
 H        -3.142449        -1.734523         0.432332
 H        -1.472733        -0.567887         2.803166
