19
Iteration:  2676
 O         0.349199        -0.196709         0.475685
 C        -0.839582         0.329488         0.956109
 C        -2.014853         0.843097         0.118713
 C        -2.406221         0.963394         1.541096
 C        -1.077593         1.546379         1.854175
 C        -3.905969         0.773129         1.885308
 O        -4.092901        -0.561534         1.403922
 C        -2.958448        -1.368936         1.472332
 C        -1.852492        -0.408551         1.796179
 H         0.066951        -0.802547        -0.245979
 H        -1.781931         1.888442        -0.193057
 H        -2.565962         0.333851        -0.740589
 H        -0.947990         2.573677         1.486467
 H        -0.634904         1.482452         2.988816
 H        -4.130824         0.938000         2.985370
 H        -4.573713         1.336695         1.229032
 H        -3.027506        -2.154131         2.237354
 H        -2.814264        -1.777059         0.401017
 H        -1.689789        -0.536481         2.889823
