19
Iteration:  1215
 O         0.398461        -0.100733         0.406721
 C        -0.787308         0.303781         1.016677
 C        -1.875251         0.963584         0.035487
 C        -2.416910         0.953266         1.578278
 C        -0.894024         1.441224         1.930875
 C        -3.945301         0.759493         2.001122
 O        -4.319803        -0.484987         1.349972
 C        -3.053194        -1.429250         1.326289
 C        -1.968176        -0.521718         1.775691
 H         0.987961        -0.309216         1.207894
 H        -1.741661         1.959246        -0.394393
 H        -2.470387         0.323610        -0.689152
 H        -0.795392         2.448848         1.564248
 H        -0.234297         1.326479         2.960859
 H        -4.028933         0.559100         3.033400
 H        -4.618428         1.545321         1.716878
 H        -3.243299        -2.292868         2.024118
 H        -2.914107        -1.812528         0.271185
 H        -1.591927        -0.729603         2.811567
