19
Iteration:  2696charge 0 multiplicity 1
 O         0.421985        -0.198624         0.511327
 C        -0.867024         0.284941         0.914390
 C        -1.960529         0.885944        -0.055294
 C        -2.437304         1.035620         1.512456
 C        -1.068444         1.530062         1.897303
 C        -3.933326         0.805307         1.954362
 O        -4.246067        -0.565841         1.427778
 C        -2.940496        -1.424886         1.457059
 C        -1.828071        -0.446801         1.870355
 H         0.607048         0.045190        -0.321519
 H        -1.950074         1.817595        -0.547083
 H        -2.387682         0.099961        -0.681681
 H        -0.724928         2.461946         1.478571
 H        -0.655295         1.592854         2.947658
 H        -4.017539         0.848802         3.055221
 H        -4.691275         1.451581         1.498301
 H        -3.122394        -2.228423         2.183709
 H        -2.794001        -1.949140         0.498881
 H        -1.325808        -0.665624         2.854946
