19
Iteration:  3874charge 0 multiplicity 1
 O         0.415699        -0.199574         0.281463
 C        -0.804741         0.346649         0.935199
 C        -2.089469         0.757472         0.072807
 C        -2.479018         1.002494         1.560611
 C        -0.990312         1.635413         1.747246
 C        -3.912348         0.764671         1.794465
 O        -4.227130        -0.638318         1.448782
 C        -2.943865        -1.386772         1.657082
 C        -1.830125        -0.374070         1.941594
 H         1.070811        -0.431499         0.971574
 H        -2.069310         1.714174        -0.433219
 H        -2.687199         0.092455        -0.575364
 H        -0.759284         2.587552         1.265296
 H        -0.705826         1.704291         2.839174
 H        -4.138471         1.011715         2.858137
 H        -4.585797         1.376203         1.181460
 H        -3.020423        -1.981914         2.531265
 H        -2.742260        -2.115600         0.833511
 H        -1.450016        -0.218776         2.923311
