19
Iteration:  4089
 O         0.487559        -0.130113         0.616376
 C        -0.836139         0.268678         0.935670
 C        -1.896984         0.651553        -0.127648
 C        -2.505801         1.011982         1.301737
 C        -1.078814         1.659965         1.680889
 C        -3.942595         0.818860         1.950101
 O        -4.176120        -0.643134         1.899182
 C        -3.048115        -1.389415         1.399469
 C        -1.903017        -0.405574         1.738816
 H         0.869397         0.548978        -0.111724
 H        -1.648426         1.516001        -0.796656
 H        -2.223798        -0.195201        -0.782986
 H        -0.829184         2.481170         1.022342
 H        -0.735431         1.772930         2.727180
 H        -3.903315         1.007732         3.031937
 H        -4.750646         1.296488         1.389991
 H        -2.889739        -2.257331         2.080556
 H        -3.257056        -1.546467         0.354152
 H        -1.744454        -0.365020         2.904770
