19
Iteration:   593charge 0 multiplicity 1
 O         0.298033        -0.228236         0.454869
 C        -0.789038         0.328134         0.953651
 C        -1.998344         0.870744         0.087726
 C        -2.407521         0.882301         1.590615
 C        -0.998296         1.557951         1.921052
 C        -3.824708         0.763916         1.899506
 O        -4.230450        -0.498377         1.356757
 C        -3.061981        -1.314449         1.348433
 C        -1.835164        -0.511523         1.822588
 H         0.985927         0.369636         0.576137
 H        -1.807763         1.886585        -0.295427
 H        -2.429332         0.198692        -0.610955
 H        -0.973442         2.550756         1.573908
 H        -0.635287         1.354975         2.971307
 H        -3.927385         0.665356         3.042905
 H        -4.428924         1.549564         1.479134
 H        -3.239980        -2.055134         2.149891
 H        -2.856315        -1.854050         0.382814
 H        -1.461426        -0.682927         2.851653
