19
Iteration:  2770
 O         0.514681        -0.072698         0.477889
 C        -0.765232         0.341189         0.928800
 C        -1.922436         0.764587        -0.003111
 C        -2.474037         0.943723         1.458351
 C        -1.044095         1.580729         1.868788
 C        -3.952053         0.883771         1.893404
 O        -4.240583        -0.607201         1.727709
 C        -3.025782        -1.431070         1.353214
 C        -1.941112        -0.469320         1.703447
 H         0.627108        -1.028327         0.671603
 H        -1.736785         1.757566        -0.510546
 H        -2.318033        -0.007860        -0.659022
 H        -0.739548         2.527816         1.365129
 H        -0.873427         1.526865         2.915304
 H        -4.125797         1.155544         2.935990
 H        -4.599897         1.438377         1.181520
 H        -2.967314        -2.407866         1.915224
 H        -3.091655        -1.529612         0.296819
 H        -1.727937        -0.625894         2.768534
