19
Iteration:   869
 O         0.374971        -0.110139         0.393326
 C        -0.793951         0.326265         0.941440
 C        -2.018109         0.900896         0.138548
 C        -2.392432         0.961576         1.671843
 C        -0.944926         1.483179         1.970906
 C        -3.903573         0.818487         1.871084
 O        -4.221447        -0.505979         1.345049
 C        -3.034654        -1.372709         1.372709
 C        -1.845172        -0.548110         1.745021
 H         0.347931        -0.959220         0.847697
 H        -1.880584         1.844699        -0.337770
 H        -2.535460         0.084027        -0.484720
 H        -0.852086         2.578110         1.717895
 H        -0.491059         1.280399         2.994381
 H        -4.345412         0.862498         2.886967
 H        -4.528659         1.421684         1.165675
 H        -3.187245        -2.099465         2.240361
 H        -3.079502        -1.983267         0.474021
 H        -1.374329        -0.710653         2.731233
