19
Iteration:  3045charge 0 multiplicity 1
 O         0.468677        -0.083124         0.503341
 C        -0.794321         0.275637         0.940823
 C        -1.941231         0.718110        -0.017632
 C        -2.448750         0.945636         1.466657
 C        -1.062770         1.544300         1.669348
 C        -3.887930         0.784969         1.892484
 O        -4.305131        -0.579992         1.656710
 C        -3.044914        -1.395928         1.484755
 C        -1.870118        -0.410939         1.822198
 H         0.985545         0.744938         0.436946
 H        -1.658001         1.581368        -0.682813
 H        -2.634508        -0.117631        -0.411899
 H        -0.738791         2.371223         1.064880
 H        -0.499293         1.670331         2.638937
 H        -3.913203         0.909949         2.986228
 H        -4.606040         1.465127         1.332987
 H        -3.073030        -2.244095         2.227141
 H        -2.960610        -1.667964         0.455715
 H        -1.590801        -0.363880         2.891215
