19
Iteration:  4245charge 0 multiplicity 1
 O         0.456693        -0.116661         0.515988
 C        -0.811328         0.262981         0.859633
 C        -1.973174         0.701227        -0.016006
 C        -2.456356         1.045703         1.453053
 C        -1.006166         1.610567         1.703116
 C        -3.914752         0.750029         1.979649
 O        -4.277264        -0.591480         1.550479
 C        -3.034090        -1.415692         1.551238
 C        -1.841393        -0.407346         1.818381
 H         0.874653         0.659959         0.432445
 H        -1.805351         1.618286        -0.615440
 H        -2.390363        -0.043292        -0.680264
 H        -0.778218         2.525166         1.194029
 H        -0.726026         1.555204         2.735237
 H        -3.897345         0.873673         3.074885
 H        -4.700983         1.253633         1.451646
 H        -3.123428        -2.159859         2.313379
 H        -3.043046        -1.865950         0.563196
 H        -1.502939        -0.373797         2.878104
