19
Iteration:   131
 O         0.353422        -0.210031         0.420814
 C        -0.792813         0.317110         0.992586
 C        -1.824041         0.811588         0.005707
 C        -2.482333         1.016398         1.519811
 C        -0.974854         1.640691         1.828283
 C        -3.996087         0.789322         1.782426
 O        -4.212828        -0.630156         1.768633
 C        -2.952384        -1.411688         1.334168
 C        -1.948315        -0.357991         1.775829
 H         0.517051        -1.004715         0.869457
 H        -1.644041         1.675852        -0.552654
 H        -2.246399         0.088796        -0.607838
 H        -0.655259         2.591224         1.319564
 H        -0.775882         1.829450         2.891197
 H        -4.358750         1.184074         2.749156
 H        -4.509319         1.226836         0.936345
 H        -2.934580        -2.271043         1.964802
 H        -3.055678        -1.779019         0.326250
 H        -1.605371        -0.476304         2.812644
