19
Iteration:  1219
 O         0.427838        -0.097303         0.408528
 C        -0.777703         0.317013         0.975224
 C        -1.874272         0.954950         0.062763
 C        -2.418797         0.911902         1.539228
 C        -0.875341         1.433136         1.952456
 C        -3.944653         0.746362         1.977011
 O        -4.320064        -0.499573         1.379828
 C        -3.094711        -1.402198         1.309017
 C        -1.984122        -0.480201         1.785561
 H         0.961275        -0.413963         1.248295
 H        -1.759062         1.977409        -0.376016
 H        -2.475168         0.341936        -0.559285
 H        -0.775583         2.532228         1.623213
 H        -0.353837         1.338452         2.882230
 H        -3.955895         0.610110         3.134258
 H        -4.691004         1.533122         1.748207
 H        -3.140353        -2.253798         1.932498
 H        -2.887482        -1.896411         0.340981
 H        -1.684767        -0.699723         2.782259
