19
Iteration:  2208charge 0 multiplicity 1
 O         0.420923        -0.263757         0.414749
 C        -0.740060         0.311226         0.967207
 C        -1.934311         1.042206         0.022901
 C        -2.454902         1.049159         1.487739
 C        -0.966118         1.488075         2.056194
 C        -4.039063         0.805160         1.794396
 O        -4.208617        -0.685568         1.838477
 C        -2.959007        -1.304688         1.152097
 C        -1.929049        -0.425331         1.680384
 H         0.787662        -0.897979         1.092971
 H        -1.772990         2.079778        -0.458050
 H        -2.461466         0.387873        -0.630857
 H        -0.621776         2.388572         1.658701
 H        -0.579198         0.971344         3.003827
 H        -4.520450         1.394659         2.627372
 H        -4.664344         1.131775         0.919186
 H        -3.060022        -2.330806         1.584102
 H        -3.103455        -1.515743         0.041547
 H        -1.794634        -0.722990         2.785919
