19
Iteration:  4722charge 0 multiplicity 1
 O         0.583547        -0.002213         0.354611
 C        -0.768894         0.344930         0.877401
 C        -2.030095         0.554428         0.048597
 C        -2.454948         0.896051         1.569782
 C        -1.167780         1.578857         1.773871
 C        -3.896718         0.861062         1.925421
 O        -4.215172        -0.445996         1.466779
 C        -3.061963        -1.383993         1.529594
 C        -1.846983        -0.573280         1.860548
 H         0.908103        -0.518233         1.052288
 H        -2.201462         1.441458        -0.595226
 H        -2.406310        -0.318435        -0.418487
 H        -0.975401         2.590002         1.330149
 H        -0.909579         1.553595         2.863392
 H        -4.022083         1.068931         3.019316
 H        -4.528206         1.753412         1.511600
 H        -3.343744        -2.125151         2.290749
 H        -2.981177        -1.726467         0.512070
 H        -1.366880        -0.591717         2.857586
