19
Iteration:  4919charge 0 multiplicity 1
 O         0.432639        -0.149548         0.471101
 C        -0.839159         0.276520         0.940406
 C        -1.984240         0.670741         0.037907
 C        -2.460521         0.980672         1.438042
 C        -1.018904         1.660451         1.863362
 C        -3.855001         0.862226         1.831418
 O        -4.189471        -0.615362         1.644836
 C        -3.034457        -1.348139         1.406357
 C        -1.886464        -0.473276         1.848100
 H         0.791701         0.590336         0.150546
 H        -1.989311         1.540123        -0.708407
 H        -2.534676        -0.191252        -0.487903
 H        -0.733532         2.512347         1.253779
 H        -0.671699         1.737769         2.919258
 H        -4.104800         1.017994         2.849431
 H        -4.616553         1.237475         1.093351
 H        -3.088108        -2.315527         1.988511
 H        -2.982645        -1.688548         0.326051
 H        -1.680839        -0.470413         2.980427
