19
Iteration:  3218
 O         0.443449        -0.198085         0.628767
 C        -0.817633         0.319386         0.846212
 C        -2.083696         0.716865        -0.071741
 C        -2.488766         0.963080         1.414697
 C        -1.095960         1.572347         1.686002
 C        -3.915925         0.842446         1.964797
 O        -4.241083        -0.503918         1.621449
 C        -2.884332        -1.385688         1.533215
 C        -1.738316        -0.493999         1.760195
 H         0.906592         0.530541         0.415594
 H        -2.068289         1.534589        -0.730954
 H        -2.425963        -0.213050        -0.635158
 H        -1.071049         2.563018         1.162763
 H        -0.689963         1.705788         2.767258
 H        -3.995013         1.001555         3.022661
 H        -4.597185         1.582754         1.492267
 H        -3.196127        -2.243744         2.178374
 H        -3.053801        -1.819027         0.510358
 H        -1.416863        -0.541542         2.817514
