19
Iteration:  4911charge 0 multiplicity 1
 O         0.490028        -0.115103         0.434429
 C        -0.800592         0.284542         0.953324
 C        -1.941792         0.700636        -0.011022
 C        -2.439466         0.951542         1.450315
 C        -1.062690         1.599782         1.875057
 C        -3.905472         0.920853         1.830266
 O        -4.220762        -0.607458         1.638386
 C        -3.048599        -1.430029         1.497497
 C        -1.902219        -0.474828         1.802147
 H         0.731337         0.640869        -0.045839
 H        -1.843516         1.501744        -0.690519
 H        -2.642485        -0.054087        -0.456947
 H        -0.647448         2.542951         1.462128
 H        -0.875167         1.503283         2.970919
 H        -4.146837         1.290325         2.863481
 H        -4.642407         1.247482         1.080572
 H        -3.009499        -2.331307         2.143122
 H        -3.035940        -1.741374         0.483910
 H        -1.649589        -0.387893         2.857470
