19
Iteration:  3148
 O         0.453459        -0.287521         0.523002
 C        -0.795263         0.319933         0.857521
 C        -1.971323         0.783759        -0.081925
 C        -2.466132         0.956635         1.369814
 C        -1.250103         1.676045         1.959980
 C        -3.879977         0.795741         1.685366
 O        -4.072960        -0.549521         1.946045
 C        -3.041046        -1.377130         1.397070
 C        -1.839412        -0.449261         1.789708
 H         0.886144         0.237470        -0.229173
 H        -1.847827         1.606647        -0.927293
 H        -2.477295        -0.058334        -0.584515
 H        -1.079243         2.753581         1.680691
 H        -0.988746         1.537848         2.989449
 H        -4.174230         1.410196         2.566160
 H        -4.540283         1.082943         0.881984
 H        -3.085386        -2.327014         1.893491
 H        -3.052747        -1.634967         0.281964
 H        -1.470429        -0.405016         2.831376
