19
Iteration:  2395
 O         0.437723        -0.122203         0.446968
 C        -0.792788         0.345274         0.858574
 C        -1.982381         0.908135         0.137910
 C        -2.419779         0.919754         1.582216
 C        -1.023079         1.520625         1.983677
 C        -3.862776         0.767562         1.927195
 O        -4.270061        -0.523977         1.422628
 C        -3.032938        -1.377569         1.376774
 C        -1.857117        -0.493538         1.653641
 H         0.355709        -1.062647         0.950527
 H        -1.878963         1.959736        -0.281171
 H        -2.501860         0.166615        -0.558727
 H        -0.975724         2.580588         1.574469
 H        -0.687657         1.319312         3.088754
 H        -3.945276         1.008155         3.018205
 H        -4.568869         1.489724         1.470367
 H        -3.148405        -2.171466         2.143194
 H        -2.990477        -1.925515         0.418214
 H        -1.356015        -0.814701         2.611698
