19
Iteration:  3383
 O         0.470969        -0.197093         0.671111
 C        -0.816343         0.356034         0.777072
 C        -2.055832         0.719862        -0.117051
 C        -2.486934         0.888902         1.448799
 C        -1.133073         1.624856         1.800359
 C        -3.891739         0.903637         1.895801
 O        -4.187167        -0.576863         1.779832
 C        -2.995730        -1.370711         1.431911
 C        -1.798324        -0.476252         1.744433
 H         0.816394         0.038643        -0.280557
 H        -1.954279         1.678719        -0.710489
 H        -2.548618         0.007788        -0.702053
 H        -0.940554         2.671940         1.451171
 H        -0.667006         1.307657         2.722298
 H        -4.045385         1.299954         2.932036
 H        -4.591296         1.413179         1.187527
 H        -2.908581        -2.314245         1.967338
 H        -2.879807        -1.533712         0.357917
 H        -1.353880        -0.660189         2.701150
