19
Iteration:  4509
 O         0.313554        -0.245020         0.429631
 C        -0.823985         0.240339         0.908339
 C        -2.001518         0.794217         0.051304
 C        -2.463344         0.962995         1.511005
 C        -1.200738         1.713745         1.798343
 C        -3.901039         0.882455         1.739486
 O        -4.095330        -0.627677         1.704010
 C        -2.881413        -1.389220         1.474993
 C        -1.794353        -0.405901         1.811770
 H         0.882120        -0.633640         1.262610
 H        -1.869887         1.684033        -0.609343
 H        -2.413841        -0.006652        -0.625309
 H        -0.956536         2.498678         1.127400
 H        -0.747517         1.774683         2.767263
 H        -4.152841         1.179645         2.797506
 H        -4.567983         1.460987         1.028935
 H        -3.069592        -2.381543         1.867771
 H        -2.950631        -1.550025         0.392591
 H        -1.515046        -0.363930         2.912925
