19
Iteration:   225charge 0 multiplicity 1
 O         0.385402        -0.188070         0.371652
 C        -0.768778         0.294751         0.955147
 C        -1.958643         0.754025         0.036650
 C        -2.483868         0.931385         1.451441
 C        -1.177996         1.509847         1.874901
 C        -3.863641         0.880361         1.884587
 O        -4.123390        -0.507239         1.524740
 C        -3.001394        -1.354146         1.476996
 C        -1.888042        -0.476814         1.864627
 H         1.280022         0.226792         0.849642
 H        -1.817143         1.815452        -0.546828
 H        -2.448427         0.000483        -0.591659
 H        -0.998539         2.442749         1.421796
 H        -0.946323         1.639937         2.979437
 H        -3.932985         1.019245         2.896490
 H        -4.613362         1.449947         1.315990
 H        -3.206371        -2.303333         2.044664
 H        -2.870495        -1.789515         0.424146
 H        -1.597894        -0.566366         2.926181
