19
Iteration:  4559charge 0 multiplicity 1
 O         0.558710         0.051708         0.563281
 C        -0.804554         0.248632         0.874053
 C        -1.911344         0.762058        -0.177918
 C        -2.509911         0.962369         1.272880
 C        -1.137724         1.512223         1.708770
 C        -3.790272         0.826071         1.939305
 O        -4.238517        -0.525456         1.845947
 C        -3.133034        -1.435525         1.460582
 C        -1.913568        -0.603113         1.781022
 H         0.987855         0.252823         1.309331
 H        -1.459979         1.626511        -0.702037
 H        -2.355144         0.132021        -0.882435
 H        -0.744007         2.488607         1.279360
 H        -1.145659         1.425794         2.822735
 H        -3.710355         1.282434         2.938676
 H        -4.664695         1.290527         1.468634
 H        -3.266529        -2.262058         2.231504
 H        -3.425490        -1.842873         0.497598
 H        -1.599376        -0.797356         2.786396
