19
Iteration:  1366
 O         0.548290        -0.100904         0.479845
 C        -0.738888         0.316516         0.891464
 C        -1.818069         0.907142         0.057886
 C        -2.451417         0.948332         1.491192
 C        -0.940091         1.420369         1.988938
 C        -3.915745         0.769858         1.863099
 O        -4.376347        -0.622981         1.737672
 C        -3.177491        -1.271416         1.143387
 C        -1.996925        -0.525345         1.718226
 H         1.119649         0.436398         0.916700
 H        -1.734821         1.911631        -0.318311
 H        -2.406074         0.235842        -0.583591
 H        -0.530741         2.404010         1.788808
 H        -0.609848         1.058090         2.974007
 H        -3.983864         1.048856         2.975362
 H        -4.637193         1.436478         1.267155
 H        -3.211385        -2.378292         1.422425
 H        -3.284389        -1.136973         0.087641
 H        -1.679276        -0.937446         2.741489
