19
Iteration:   629
 O         0.528520        -0.126649         0.558333
 C        -0.785723         0.223701         0.947272
 C        -2.034278         0.859249         0.054591
 C        -2.404426         0.929324         1.511805
 C        -1.016161         1.417683         1.931400
 C        -3.903127         0.837318         1.897546
 O        -4.260637        -0.520231         1.563421
 C        -3.084533        -1.302679         1.265779
 C        -1.872976        -0.485978         1.704744
 H         0.772891         0.438677        -0.109925
 H        -1.799859         1.819641        -0.381002
 H        -2.626442         0.218248        -0.601698
 H        -0.759433         2.391856         1.708571
 H        -0.623417         1.256910         2.930884
 H        -4.069864         1.008929         2.945745
 H        -4.572046         1.523387         1.343361
 H        -3.205597        -2.142367         2.049923
 H        -3.192690        -1.779574         0.257860
 H        -1.658452        -0.844661         2.754048
