19
Iteration:  4822
 O         0.394701        -0.187674         0.482608
 C        -0.839478         0.269815         0.933892
 C        -1.999553         0.689493         0.051245
 C        -2.462607         0.934535         1.549078
 C        -1.173676         1.733461         1.739450
 C        -3.868796         0.839712         1.948157
 O        -4.167956        -0.537046         1.555022
 C        -2.882521        -1.329748         1.309785
 C        -1.841168        -0.467437         1.881894
 H         0.464622        -0.973372         1.085251
 H        -1.981098         1.552456        -0.535844
 H        -2.462889        -0.041940        -0.630420
 H        -1.007648         2.585855         1.076271
 H        -0.607510         1.739843         2.701202
 H        -3.766894         0.987989         3.036145
 H        -4.608094         1.441332         1.394605
 H        -3.055637        -2.348121         1.704310
 H        -2.826337        -1.441561         0.264291
 H        -1.628721        -0.654365         2.941366
