19
Iteration:   617charge 0 multiplicity 1
 O         0.557325        -0.203596         0.532844
 C        -0.779519         0.243709         0.859853
 C        -2.060275         0.867328         0.096808
 C        -2.489427         0.950436         1.639075
 C        -1.037901         1.473813         1.906415
 C        -3.954365         0.887738         1.944186
 O        -4.229172        -0.435482         1.483208
 C        -3.016378        -1.406371         1.306215
 C        -1.865755        -0.555786         1.693256
 H         0.926011         0.614658         0.102014
 H        -1.837050         1.797230        -0.424050
 H        -2.607018         0.201762        -0.517463
 H        -0.828730         2.381849         1.570184
 H        -0.851619         1.190680         2.971379
 H        -4.306460         0.993291         2.979389
 H        -4.443853         1.596803         1.262649
 H        -3.140391        -2.265733         2.066447
 H        -2.947827        -1.818972         0.249773
 H        -1.434500        -0.712838         2.734380
