19
Iteration:  4184charge 0 multiplicity 1
 O         0.279010        -0.269076         0.304664
 C        -0.833252         0.332285         0.925040
 C        -2.005125         0.756917         0.100858
 C        -2.469531         1.029814         1.549581
 C        -1.101263         1.731062         1.779822
 C        -3.933157         0.809180         1.857340
 O        -4.069625        -0.639340         1.407409
 C        -2.925357        -1.453594         1.626171
 C        -1.828641        -0.367185         1.905098
 H         0.991197        -0.287875         0.944697
 H        -1.837656         1.733852        -0.443413
 H        -2.286203        -0.042259        -0.542641
 H        -1.003548         2.758831         1.281974
 H        -0.651536         1.789825         2.822051
 H        -4.208071         1.159804         2.924309
 H        -4.612976         1.315228         1.097201
 H        -2.971458        -2.142435         2.529929
 H        -2.731931        -2.060600         0.676274
 H        -1.552529        -0.470007         2.977269
