19
Iteration:  4622
 O         0.352511        -0.121087         0.353653
 C        -0.787128         0.282667         0.991823
 C        -1.877439         0.785610         0.066056
 C        -2.458911         0.995006         1.444335
 C        -1.038912         1.545033         1.757009
 C        -3.980517         0.780329         1.703715
 O        -4.210565        -0.638578         1.841615
 C        -2.954860        -1.315360         1.391816
 C        -1.946912        -0.417578         1.924460
 H         0.969804        -0.452067         0.890025
 H        -1.489856         1.717282        -0.444539
 H        -2.152458         0.088390        -0.724241
 H        -0.705678         2.410449         1.128561
 H        -0.846968         1.707845         2.832908
 H        -4.327048         1.309868         2.635070
 H        -4.503347         1.166672         0.715910
 H        -2.764448        -2.285397         1.823669
 H        -3.003180        -1.516557         0.314950
 H        -1.586469        -0.575389         2.962778
