19
Iteration:  1879
 O         0.409145        -0.233906         0.568275
 C        -0.826897         0.308177         0.910989
 C        -1.907843         1.021688        -0.012433
 C        -2.471784         0.912136         1.508647
 C        -1.064609         1.456753         1.994079
 C        -3.903415         0.861025         1.817007
 O        -4.182925        -0.557862         1.792903
 C        -3.014046        -1.411526         1.195003
 C        -1.866646        -0.533257         1.674370
 H         0.682134         0.349626        -0.091501
 H        -1.593524         1.992446        -0.363144
 H        -2.415970         0.445246        -0.856679
 H        -0.880888         2.496727         1.726094
 H        -0.924132         1.397537         3.143318
 H        -4.232505         1.376306         2.717710
 H        -4.410414         1.335494         0.949142
 H        -3.043975        -2.356869         1.720860
 H        -3.335520        -1.499147         0.198259
 H        -1.466746        -0.971560         2.640027
