19
Iteration:  3337charge 0 multiplicity 1
 O         0.527172        -0.058976         0.376945
 C        -0.764138         0.332737         0.876378
 C        -1.917306         0.622081        -0.047627
 C        -2.472190         0.970900         1.469228
 C        -1.068833         1.613853         1.708967
 C        -3.862958         0.790971         1.997823
 O        -4.315744        -0.539668         1.577589
 C        -3.091473        -1.430489         1.509023
 C        -1.866072        -0.381175         1.882076
 H         1.037545        -0.390047         1.158263
 H        -1.867356         1.529991        -0.697907
 H        -2.401734        -0.272222        -0.635596
 H        -0.999020         2.583353         1.237301
 H        -0.900490         1.528812         2.810766
 H        -3.894932         0.708346         3.129688
 H        -4.664911         1.508620         1.703355
 H        -3.166883        -2.094466         2.366246
 H        -3.018653        -1.996950         0.526307
 H        -1.656501        -0.459791         2.967865
