19
Iteration:  2659
 O         0.377476        -0.209970         0.393420
 C        -0.835286         0.368702         0.921192
 C        -2.007030         0.900007         0.069467
 C        -2.466105         0.933666         1.622275
 C        -1.003056         1.634432         1.933459
 C        -3.945902         0.799615         1.847048
 O        -4.226896        -0.585605         1.396808
 C        -2.927429        -1.398174         1.412732
 C        -1.780516        -0.450110         1.907582
 H         0.259981        -1.115186         0.404624
 H        -1.918986         1.707713        -0.708016
 H        -2.517333         0.041506        -0.344049
 H        -0.699696         2.576076         1.459863
 H        -0.713449         1.515321         2.903008
 H        -4.151214         0.804137         2.909987
 H        -4.500339         1.572327         1.285426
 H        -3.131033        -2.121973         2.215188
 H        -2.811495        -1.733413         0.398716
 H        -1.308756        -0.683449         2.861636
