19
Iteration:  1876charge 0 multiplicity 1
 O         0.398119        -0.228479         0.578592
 C        -0.812523         0.313387         0.884758
 C        -1.890819         0.992168        -0.012339
 C        -2.462940         0.892622         1.515026
 C        -1.077747         1.463688         2.025383
 C        -3.891968         0.871879         1.825735
 O        -4.204269        -0.557218         1.789318
 C        -3.001794        -1.380343         1.202918
 C        -1.860337        -0.563792         1.654875
 H         0.691477         0.324577        -0.171156
 H        -1.687792         1.988132        -0.361221
 H        -2.395601         0.493993        -0.793825
 H        -0.955535         2.536422         1.651074
 H        -0.940861         1.441143         3.030794
 H        -4.200987         1.389947         2.734119
 H        -4.427953         1.271294         0.998651
 H        -2.988790        -2.301035         1.722092
 H        -3.338836        -1.473856         0.127658
 H        -1.543393        -0.898676         2.635436
