19
Iteration:  1842charge 0 multiplicity 1
 O         0.545525        -0.159378         0.523891
 C        -0.773208         0.301805         0.976579
 C        -1.886296         0.835662        -0.051446
 C        -2.421532         0.973577         1.479102
 C        -1.024198         1.489405         1.958463
 C        -3.937356         0.835592         2.025297
 O        -4.276811        -0.558327         1.694038
 C        -3.087699        -1.352526         1.149807
 C        -1.955790        -0.525196         1.719680
 H         0.692617         0.220987        -0.261113
 H        -1.722111         1.850919        -0.395919
 H        -2.369378         0.169193        -0.682449
 H        -0.818518         2.492137         1.452183
 H        -0.979794         1.489791         2.972630
 H        -4.015417         1.082924         3.093378
 H        -4.727690         1.307990         1.498328
 H        -3.097765        -2.360171         1.571349
 H        -3.035122        -1.504475         0.007609
 H        -1.855405        -0.683741         2.778336
