19
Iteration:  4823
 O         0.401559        -0.179089         0.482197
 C        -0.850117         0.275082         0.929286
 C        -2.002316         0.684910         0.042712
 C        -2.461508         0.941306         1.544147
 C        -1.169042         1.717684         1.740326
 C        -3.874358         0.838209         1.951649
 O        -4.182382        -0.538446         1.555276
 C        -2.883910        -1.325083         1.309030
 C        -1.824196        -0.465225         1.894877
 H         0.483557        -1.033728         1.098526
 H        -1.967509         1.530766        -0.516489
 H        -2.450536        -0.044536        -0.649867
 H        -0.996155         2.571927         1.084477
 H        -0.622749         1.714078         2.716111
 H        -3.758499         1.003353         3.044397
 H        -4.582609         1.429487         1.387783
 H        -3.048196        -2.343678         1.675706
 H        -2.823730        -1.434420         0.278162
 H        -1.621699        -0.624046         2.938406
