19
Iteration:  4805charge 0 multiplicity 1
 O         0.328520        -0.328345         0.463118
 C        -0.825966         0.368694         0.964234
 C        -1.994656         0.802142         0.067373
 C        -2.422938         1.003306         1.546256
 C        -1.136389         1.760503         1.763187
 C        -3.871607         0.788200         1.951481
 O        -4.111743        -0.582553         1.526041
 C        -3.005072        -1.415303         1.334373
 C        -1.791068        -0.425263         1.799557
 H         0.995550        -0.724166         1.179596
 H        -1.763869         1.760779        -0.525589
 H        -2.541843         0.038170        -0.508653
 H        -1.176944         2.636014         1.107020
 H        -0.965473         2.064507         2.792222
 H        -4.117024         0.878648         3.036201
 H        -4.490780         1.425872         1.296367
 H        -3.006415        -2.219962         2.081109
 H        -2.990336        -1.990757         0.339033
 H        -1.504393        -0.597265         2.854824
