19
Iteration:  2913charge 0 multiplicity 1
 O         0.515223        -0.045002         0.483655
 C        -0.751583         0.326185         0.852878
 C        -1.955244         0.751367         0.008273
 C        -2.459807         0.909241         1.439728
 C        -1.126201         1.535950         1.758282
 C        -3.901024         0.835233         1.919262
 O        -4.245509        -0.575680         1.610150
 C        -3.110388        -1.347731         1.474088
 C        -1.755853        -0.481352         1.861353
 H         0.612055        -0.930685         0.678079
 H        -1.834341         1.727354        -0.487749
 H        -2.408204        -0.047247        -0.776161
 H        -0.966240         2.439474         1.256360
 H        -0.953512         1.612616         2.853678
 H        -4.159144         0.946740         2.990698
 H        -4.633953         1.434229         1.297756
 H        -3.209962        -2.266719         2.156318
 H        -3.055634        -1.691139         0.422779
 H        -1.645054        -0.348503         2.940998
