19
Iteration:  1722charge 0 multiplicity 1
 O         0.346083        -0.323141         0.469138
 C        -0.785010         0.372647         0.863221
 C        -2.023997         0.860855         0.090896
 C        -2.431988         0.896800         1.662683
 C        -1.057769         1.543594         1.966794
 C        -3.899565         0.779602         1.970429
 O        -4.242985        -0.434688         1.308567
 C        -2.943913        -1.402196         1.407217
 C        -1.768230        -0.452058         1.760905
 H         1.044358         0.255269        -0.070781
 H        -2.043176         1.885759        -0.321498
 H        -2.543575         0.253402        -0.626068
 H        -1.219205         2.727053         1.746837
 H        -0.558545         1.499346         2.938541
 H        -4.148517         0.816012         3.050538
 H        -4.450071         1.569131         1.473067
 H        -3.215954        -2.105699         2.126815
 H        -2.873928        -1.922579         0.407329
 H        -1.383621        -0.762916         2.760423
