19
Iteration:  4049charge 0 multiplicity 1
 O         0.381606        -0.312815         0.509524
 C        -0.786972         0.322719         0.799053
 C        -1.945972         0.797710        -0.113918
 C        -2.515430         0.915527         1.461429
 C        -1.170308         1.650936         1.824041
 C        -4.071962         0.805195         1.669514
 O        -4.090457        -0.588920         1.979057
 C        -2.926353        -1.302993         1.507913
 C        -1.725993        -0.413117         1.725175
 H         1.032184         0.409971         0.685909
 H        -1.838165         1.766045        -0.501326
 H        -2.398517         0.072214        -0.878010
 H        -0.797115         2.641191         1.552334
 H        -0.932887         1.535321         2.899375
 H        -4.666295         1.362641         2.435714
 H        -4.616150         1.053431         0.745716
 H        -2.995193        -2.142690         2.192605
 H        -3.070371        -1.797804         0.499566
 H        -1.324017        -0.507225         2.685348
