19
Iteration:   598charge 0 multiplicity 1
 O         0.337441        -0.229344         0.472239
 C        -0.795011         0.338438         0.939552
 C        -2.016302         0.875732         0.081541
 C        -2.384504         0.868047         1.590620
 C        -1.021205         1.526480         1.939943
 C        -3.852062         0.811102         1.912641
 O        -4.237579        -0.505962         1.359809
 C        -3.051024        -1.328955         1.352715
 C        -1.823226        -0.521537         1.825735
 H         1.116292         0.442794         0.519758
 H        -1.923722         1.893814        -0.313015
 H        -2.499228         0.196891        -0.684840
 H        -1.021049         2.596412         1.482698
 H        -0.519629         1.343159         2.869375
 H        -3.962796         0.862406         2.970543
 H        -4.507724         1.599493         1.474600
 H        -3.310557        -2.155086         2.066726
 H        -2.958089        -1.805498         0.379981
 H        -1.362795        -0.760374         2.802886
