19
Iteration:  2413
 O         0.532930        -0.033954         0.483251
 C        -0.793949         0.277880         0.922798
 C        -1.987846         0.901255        -0.079318
 C        -2.465444         0.979040         1.551145
 C        -1.026844         1.433863         1.958898
 C        -3.933108         0.813098         2.007799
 O        -4.272498        -0.541786         1.491461
 C        -3.086852        -1.354533         1.314810
 C        -1.825028        -0.522317         1.739716
 H         0.903217        -1.016544         0.634167
 H        -1.770889         1.906802        -0.572992
 H        -2.593603         0.160511        -0.536783
 H        -0.571053         2.338836         1.754955
 H        -0.711950         1.016357         2.903410
 H        -4.054736         0.853223         3.125267
 H        -4.644490         1.530562         1.605217
 H        -3.236556        -2.214408         1.973085
 H        -3.171465        -1.840999         0.336307
 H        -1.552458        -0.564382         2.785274
