19
Iteration:  4639
 O         0.265213        -0.272574         0.380603
 C        -0.851140         0.312809         0.951410
 C        -1.881961         0.812199        -0.040118
 C        -2.479702         0.968816         1.461111
 C        -1.120387         1.693098         1.894293
 C        -3.970204         0.833989         1.694896
 O        -4.107810        -0.635036         1.784126
 C        -2.902369        -1.358635         1.419053
 C        -1.766891        -0.407369         1.875162
 H         0.741240        -0.701138         1.062179
 H        -1.702042         1.733641        -0.565311
 H        -2.492527         0.083516        -0.651645
 H        -0.921097         2.688896         1.533750
 H        -0.754014         1.533591         2.916351
 H        -4.317636         1.308481         2.612697
 H        -4.482676         1.177016         0.860574
 H        -3.152913        -2.347313         1.853957
 H        -2.855957        -1.546455         0.308667
 H        -1.575654        -0.384437         2.967528
