19
Iteration:  2919
 O         0.507284        -0.070017         0.474113
 C        -0.767369         0.290231         0.895730
 C        -1.982492         0.737018        -0.005966
 C        -2.455992         0.881716         1.485024
 C        -1.165007         1.606485         1.766766
 C        -3.886717         0.825017         1.882902
 O        -4.258551        -0.563078         1.600864
 C        -3.037427        -1.337620         1.464061
 C        -1.785860        -0.480028         1.861662
 H         0.636996        -1.038760         0.489020
 H        -1.760137         1.751928        -0.381244
 H        -2.421264         0.221694        -0.767340
 H        -0.975625         2.592701         1.174670
 H        -0.824029         1.648469         2.795053
 H        -4.129587         0.958914         2.951407
 H        -4.494370         1.538606         1.350941
 H        -3.126654        -2.157886         2.131967
 H        -2.994914        -1.876858         0.496794
 H        -1.583964        -0.493292         2.957615
