19
Iteration:  2521
 O         0.389112        -0.288673         0.376842
 C        -0.720977         0.372547         0.951170
 C        -1.897878         0.932210         0.026028
 C        -2.449048         0.907676         1.486544
 C        -1.097218         1.538480         2.039549
 C        -3.952258         0.856933         1.819178
 O        -4.229681        -0.670498         1.774238
 C        -2.984687        -1.336801         1.265803
 C        -1.913244        -0.416593         1.662982
 H         1.249071        -0.213353         1.007659
 H        -1.636708         1.984155        -0.346923
 H        -2.322779         0.238785        -0.677515
 H        -1.053535         2.654120         1.672731
 H        -0.847851         1.380621         3.134828
 H        -4.322914         1.304714         2.769929
 H        -4.362639         1.344142         0.920070
 H        -2.839320        -2.306725         1.777408
 H        -3.149464        -1.364748         0.159695
 H        -1.751033        -0.652025         2.751795
