19
Iteration:  3522charge 0 multiplicity 1
 O         0.471055        -0.170797         0.545199
 C        -0.773021         0.320911         0.899743
 C        -1.985593         0.727131        -0.041722
 C        -2.458605         0.937474         1.392997
 C        -1.133258         1.649285         1.797358
 C        -3.848807         0.814143         1.970401
 O        -4.242347        -0.542215         1.696532
 C        -3.099753        -1.386505         1.394096
 C        -1.779664        -0.506615         1.689442
 H         1.065971         0.597785         0.459554
 H        -1.762710         1.646368        -0.654294
 H        -2.432840        -0.175415        -0.512082
 H        -1.007093         2.636878         1.309058
 H        -0.841232         1.521926         2.846992
 H        -3.883393         0.905882         3.079885
 H        -4.702580         1.370847         1.603602
 H        -2.958677        -2.112017         2.164030
 H        -3.324577        -1.839057         0.391262
 H        -1.534335        -0.532418         2.817479
