19
Iteration:  4228charge 0 multiplicity 1
 O         0.507428        -0.233163         0.433475
 C        -0.836822         0.320925         0.953876
 C        -2.104365         0.723700        -0.004195
 C        -2.512660         0.971471         1.490993
 C        -1.021673         1.632994         1.730335
 C        -3.983489         0.794509         1.980253
 O        -4.133574        -0.574018         1.442447
 C        -2.933973        -1.365035         1.529885
 C        -1.906282        -0.347717         1.886022
 H         1.179332         0.360821         0.496168
 H        -1.963533         1.481934        -0.809539
 H        -2.771986        -0.098581        -0.259779
 H        -0.812459         2.534236         1.062982
 H        -0.475161         1.638803         2.740558
 H        -4.055168         0.583987         3.078343
 H        -4.772300         1.489800         1.549880
 H        -3.108904        -2.040224         2.434870
 H        -2.694749        -1.956333         0.581462
 H        -1.582234        -0.564457         2.897922
