19
Iteration:  4810charge 0 multiplicity 1
 O         0.338101        -0.293375         0.480312
 C        -0.812887         0.332003         0.962150
 C        -1.993272         0.772790         0.079027
 C        -2.423325         0.949422         1.543477
 C        -1.163267         1.786442         1.740842
 C        -3.854401         0.810833         1.943508
 O        -4.070866        -0.558848         1.545382
 C        -2.981935        -1.404044         1.305949
 C        -1.867388        -0.443628         1.801551
 H         0.801677        -0.797166         1.073903
 H        -1.811732         1.702152        -0.473148
 H        -2.575885        -0.009741        -0.398516
 H        -1.189524         2.675661         1.086573
 H        -0.803521         2.096239         2.752728
 H        -4.149604         0.867696         2.990927
 H        -4.584071         1.521524         1.448523
 H        -3.016953        -2.239058         2.048902
 H        -2.883467        -1.834987         0.293508
 H        -1.568130        -0.706896         2.844063
