19
Iteration:  2807charge 0 multiplicity 1
 O         0.384948        -0.212346         0.580847
 C        -0.806469         0.335455         0.918636
 C        -1.906096         0.949691         0.000480
 C        -2.480160         0.849295         1.377386
 C        -1.100422         1.523134         1.839949
 C        -3.927880         0.883376         1.760572
 O        -4.173810        -0.643008         1.848958
 C        -2.913143        -1.374100         1.401437
 C        -1.915340        -0.408326         1.744830
 H         0.321258        -0.430471        -0.427625
 H        -1.704326         1.871848        -0.472117
 H        -2.259046         0.292566        -0.837945
 H        -0.759446         2.532980         1.646931
 H        -0.876241         1.401567         2.996344
 H        -4.359289         1.370479         2.634557
 H        -4.440103         1.296875         0.884813
 H        -2.922630        -2.389700         1.716668
 H        -2.959659        -1.586467         0.298590
 H        -1.490930        -0.494841         2.783277
