19
Iteration:  3920
 O         0.457641        -0.078609         0.448806
 C        -0.777350         0.349980         0.874696
 C        -2.021341         0.698847         0.028754
 C        -2.449583         0.920489         1.382986
 C        -1.086931         1.667490         1.736941
 C        -3.872822         0.804872         1.890556
 O        -4.232835        -0.604265         1.577395
 C        -2.995914        -1.393951         1.582285
 C        -1.834316        -0.410937         1.903735
 H         0.339619        -0.975954         0.408500
 H        -2.037706         1.442393        -0.742492
 H        -2.550823        -0.235167        -0.362564
 H        -0.871536         2.616879         1.185157
 H        -0.767963         1.715867         2.810789
 H        -4.020327         0.993543         2.960510
 H        -4.614510         1.420480         1.328070
 H        -2.987464        -2.207448         2.273473
 H        -2.897015        -1.883258         0.576257
 H        -1.393746        -0.309740         2.942301
