19
Iteration:  3625charge 0 multiplicity 1
 O         0.412427        -0.236146         0.500093
 C        -0.835239         0.371160         0.886913
 C        -2.120912         0.787275         0.060309
 C        -2.439104         0.947979         1.576676
 C        -1.011185         1.608356         1.790079
 C        -3.905385         0.787584         1.913172
 O        -4.163719        -0.552927         1.357826
 C        -2.972811        -1.403640         1.591201
 C        -1.811123        -0.405942         1.835131
 H         0.679168         0.034251        -0.394493
 H        -2.120588         1.744628        -0.533529
 H        -2.816280         0.118292        -0.512480
 H        -0.797742         2.597599         1.441801
 H        -0.490115         1.456258         2.765196
 H        -4.120160         0.763439         2.999029
 H        -4.575031         1.473016         1.320477
 H        -3.221202        -2.060395         2.429644
 H        -2.753344        -2.050807         0.730838
 H        -1.280363        -0.480044         2.783682
