19
Iteration:  2338charge 0 multiplicity 1
 O         0.318799        -0.273284         0.292680
 C        -0.795022         0.433334         0.995981
 C        -2.034081         0.852226         0.138358
 C        -2.450308         1.006208         1.638521
 C        -0.936004         1.518438         1.964999
 C        -3.938174         0.723482         1.962918
 O        -4.187875        -0.505194         1.283626
 C        -2.973168        -1.371537         1.352776
 C        -1.884360        -0.442789         1.858131
 H         1.166148        -0.100510         0.792998
 H        -1.774446         1.808501        -0.527105
 H        -2.330630         0.009523        -0.490081
 H        -0.660730         2.534927         1.913999
 H        -0.842904         1.283724         3.145043
 H        -4.138521         0.773000         3.064793
 H        -4.458764         1.438026         1.337591
 H        -3.272773        -2.176521         2.020430
 H        -2.831434        -1.750678         0.332683
 H        -1.490555        -0.708770         2.833171
