19
Iteration:   212
 O         0.545238        -0.118816         0.389502
 C        -0.800217         0.245875         0.937516
 C        -1.954665         0.707551         0.017363
 C        -2.478270         0.932012         1.444297
 C        -1.088740         1.561193         1.796048
 C        -3.892317         0.870876         1.976879
 O        -4.344877        -0.549191         1.535499
 C        -2.990223        -1.368426         1.405892
 C        -1.884594        -0.434742         1.885301
 H         1.115743         0.079976         1.073306
 H        -1.642215         1.619631        -0.571037
 H        -2.507648        -0.029140        -0.631670
 H        -0.849872         2.532744         1.376536
 H        -0.801829         1.404032         2.852297
 H        -3.843023         0.959480         3.042640
 H        -4.619604         1.610399         1.611143
 H        -3.088347        -2.229745         2.141728
 H        -2.891134        -1.668115         0.358938
 H        -1.680554        -0.478521         2.977714
