19
Iteration:  4067charge 0 multiplicity 1
 O         0.425398        -0.284021         0.534715
 C        -0.793267         0.379261         0.875146
 C        -1.913169         0.816996        -0.103178
 C        -2.506814         0.916739         1.321209
 C        -1.225039         1.637895         1.740425
 C        -3.884345         0.818304         1.764327
 O        -4.159822        -0.620473         1.966169
 C        -2.953071        -1.373938         1.477662
 C        -1.867441        -0.433526         1.799544
 H         1.178192         0.343739         0.412372
 H        -1.772699         1.739327        -0.720917
 H        -2.374500         0.039345        -0.733568
 H        -1.177171         2.633099         1.300809
 H        -0.929455         1.604943         2.795791
 H        -3.970149         1.349594         2.726226
 H        -4.598402         1.141316         0.981029
 H        -2.951687        -2.336395         2.040120
 H        -3.098632        -1.436036         0.399173
 H        -1.504242        -0.472292         2.897922
