19
Iteration:  3572
 O         0.329252        -0.272347         0.396170
 C        -0.797474         0.353151         0.951179
 C        -1.995625         0.791664         0.121335
 C        -2.476941         1.065956         1.549405
 C        -0.961241         1.584744         1.849027
 C        -3.915760         0.738460         1.848569
 O        -4.193434        -0.619052         1.408072
 C        -2.913665        -1.334277         1.529638
 C        -1.874715        -0.365165         1.883353
 H         0.412934        -0.064029        -0.624842
 H        -2.006959         1.710731        -0.466834
 H        -2.425397        -0.060908        -0.544644
 H        -0.790625         2.571512         1.387493
 H        -0.699881         1.715729         2.943498
 H        -4.191958         0.752157         2.923637
 H        -4.714362         1.326771         1.309282
 H        -3.022352        -2.082766         2.409289
 H        -2.600926        -1.941075         0.675418
 H        -1.574801        -0.396859         2.928213
