19
Iteration:  4215charge 0 multiplicity 1
 O         0.354539        -0.289578         0.439953
 C        -0.826720         0.323395         0.862742
 C        -2.120636         0.684629         0.089247
 C        -2.490978         0.966979         1.553860
 C        -1.103728         1.653267         1.700216
 C        -3.900991         0.769746         1.946086
 O        -4.139094        -0.550658         1.347390
 C        -2.888785        -1.338539         1.573912
 C        -1.757745        -0.361863         1.935310
 H         1.099984         0.378737         0.737531
 H        -2.106762         1.703818        -0.404512
 H        -2.458436        -0.071668        -0.561431
 H        -0.963912         2.696129         1.295223
 H        -0.745073         1.628765         2.759167
 H        -4.067513         0.935749         3.001968
 H        -4.657342         1.394735         1.427649
 H        -3.046071        -2.147744         2.292573
 H        -2.703900        -1.858680         0.571629
 H        -1.392248        -0.309163         2.936596
