19
Iteration:  3692
 O         0.407342        -0.170029         0.496635
 C        -0.768437         0.355898         0.881678
 C        -1.847328         0.693709        -0.067992
 C        -2.472152         0.924064         1.420603
 C        -1.188945         1.580426         1.811504
 C        -3.925161         0.836103         1.905416
 O        -4.211680        -0.594489         1.899379
 C        -3.034854        -1.303130         1.348721
 C        -1.817500        -0.465362         1.664850
 H         1.115444         0.294224         1.116102
 H        -1.627159         1.609780        -0.561756
 H        -2.220091        -0.020596        -0.921992
 H        -1.167398         2.620651         1.515159
 H        -0.753851         1.502042         2.833786
 H        -4.068629         1.237942         2.925160
 H        -4.583818         1.370031         1.141276
 H        -2.950922        -2.346898         1.705909
 H        -3.210995        -1.367602         0.282456
 H        -1.679339        -0.846294         2.659296
