19
Iteration:  1004
 O         0.463289        -0.217606         0.430064
 C        -0.796696         0.267186         0.989177
 C        -1.762192         1.002716         0.030242
 C        -2.463859         0.960051         1.516452
 C        -1.064622         1.394668         1.966304
 C        -3.994502         0.861341         1.816609
 O        -4.249294        -0.579161         1.738530
 C        -3.066556        -1.323155         1.208910
 C        -1.934460        -0.513633         1.769207
 H         0.828681         0.550979         0.013811
 H        -1.308303         1.894725        -0.482502
 H        -2.182556         0.269779        -0.594669
 H        -0.956716         2.524891         1.757333
 H        -0.756196         1.126368         2.984673
 H        -4.162719         0.998235         2.894865
 H        -4.817063         1.352525         1.187996
 H        -3.026938        -2.354076         1.651100
 H        -3.041333        -1.324067         0.102241
 H        -1.674887        -0.801482         2.832877
