19
Iteration:  1259charge 0 multiplicity 1
 O         0.380009        -0.078862         0.486728
 C        -0.812799         0.308297         0.888429
 C        -1.869252         0.910379         0.077708
 C        -2.443161         0.800656         1.524583
 C        -1.133849         1.457532         2.043232
 C        -3.853578         0.914262         1.885680
 O        -4.203037        -0.501278         1.653055
 C        -2.993495        -1.368885         1.145490
 C        -1.877321        -0.580097         1.673800
 H         0.562479        -0.891236         0.938753
 H        -1.642781         1.894898        -0.382599
 H        -2.337534         0.287912        -0.758591
 H        -0.965958         2.523363         1.765595
 H        -0.802745         1.286135         3.189526
 H        -3.888013         1.206885         2.902205
 H        -4.494956         1.512275         1.271891
 H        -3.256220        -2.280141         1.745043
 H        -3.223735        -1.508118         0.060592
 H        -1.645752        -0.765666         2.763519
