19
Iteration:  2372
 O         0.303663        -0.203215         0.316495
 C        -0.829246         0.295484         0.969366
 C        -1.976366         0.989267         0.110011
 C        -2.444038         0.979833         1.610966
 C        -1.079712         1.551137         1.926752
 C        -3.866661         0.772103         1.941936
 O        -4.148939        -0.498741         1.329809
 C        -2.973187        -1.422159         1.378918
 C        -1.836285        -0.521343         1.900573
 H         0.626017        -0.742630         0.946973
 H        -1.472003         1.953014        -0.313629
 H        -2.440096         0.385398        -0.716313
 H        -0.848843         2.529406         1.501667
 H        -0.879191         1.321009         3.082426
 H        -4.257948         0.735115         2.993015
 H        -4.445895         1.583078         1.471729
 H        -3.083508        -2.339004         1.991091
 H        -2.841716        -1.779312         0.344503
 H        -1.436225        -0.855348         2.882764
