19
Iteration:  4729charge 0 multiplicity 1
 O         0.552485        -0.019435         0.346738
 C        -0.763750         0.385850         0.854956
 C        -2.012905         0.607828         0.077333
 C        -2.423665         0.775398         1.583875
 C        -1.209730         1.583337         1.795433
 C        -3.870098         0.845260         1.917828
 O        -4.250426        -0.444431         1.467570
 C        -3.105337        -1.332186         1.541521
 C        -1.806996        -0.544244         1.870813
 H         1.044881        -0.412681         1.020247
 H        -2.247991         1.575267        -0.530745
 H        -2.182869        -0.312002        -0.559298
 H        -1.044433         2.517795         1.261415
 H        -0.676941         1.486536         2.733206
 H        -4.229977         1.102189         2.917628
 H        -4.171833         1.544181         1.135791
 H        -3.244510        -2.021680         2.395179
 H        -3.043723        -1.966689         0.568541
 H        -1.392563        -0.651630         2.920126
