19
Iteration:  3710
 O         0.517234        -0.107349         0.491996
 C        -0.827735         0.276163         0.920256
 C        -1.926842         0.863866        -0.064365
 C        -2.461617         0.942520         1.378460
 C        -1.041228         1.538146         1.763676
 C        -3.986717         0.809541         1.801948
 O        -4.143659        -0.653854         2.009378
 C        -3.090392        -1.363426         1.280687
 C        -1.929419        -0.421256         1.748518
 H         0.991569        -0.200837         1.421401
 H        -1.746184         1.785357        -0.670215
 H        -2.474691         0.197488        -0.677616
 H        -0.568014         2.369839         1.243664
 H        -0.759327         1.526907         2.822373
 H        -4.241690         1.265851         2.745164
 H        -4.669503         1.205156         1.046256
 H        -3.200214        -2.339182         1.698531
 H        -3.124741        -1.508185         0.155448
 H        -1.680748        -0.585880         2.853768
