19
Iteration:  1710charge 0 multiplicity 1
 O         0.355520        -0.264815         0.521714
 C        -0.807799         0.396554         0.882215
 C        -1.970649         0.924463         0.083166
 C        -2.399239         0.841857         1.598626
 C        -1.148759         1.588049         1.925164
 C        -3.821050         0.865729         1.997594
 O        -4.257536        -0.509590         1.356811
 C        -3.012069        -1.375947         1.352398
 C        -1.816429        -0.573699         1.756164
 H         0.973568         0.131256        -0.244494
 H        -1.824410         1.930394        -0.325398
 H        -2.399516         0.105629        -0.516366
 H        -0.803291         2.638961         1.397223
 H        -0.777159         1.263081         2.954975
 H        -3.945182         0.709485         3.070117
 H        -4.410082         1.714977         1.640447
 H        -3.028965        -1.992901         2.222145
 H        -2.932947        -2.041785         0.435563
 H        -1.382312        -0.788662         2.761821
