19
Iteration:  4024charge 0 multiplicity 1
 O         0.367023        -0.220915         0.459822
 C        -0.778801         0.322020         0.931179
 C        -1.992305         0.843108        -0.054647
 C        -2.473980         0.992357         1.382361
 C        -1.004959         1.597620         1.784730
 C        -3.917496         0.751308         1.606830
 O        -4.154756        -0.671066         1.987923
 C        -3.000831        -1.410293         1.517974
 C        -1.885028        -0.375267         1.825748
 H         1.031042         0.664974         0.376888
 H        -1.824065         1.832497        -0.588479
 H        -2.375285         0.068620        -0.745149
 H        -0.670286         2.418238         1.188878
 H        -0.602696         1.724578         2.795706
 H        -4.482867         1.287163         2.403456
 H        -4.396161         0.945312         0.638384
 H        -3.074470        -2.400639         2.113186
 H        -3.090452        -1.591315         0.407514
 H        -1.936747        -0.054315         2.933575
