19
Iteration:   781charge 0 multiplicity 1
 O         0.505480        -0.070468         0.539719
 C        -0.812287         0.237409         0.927097
 C        -1.983365         0.952189         0.069869
 C        -2.419190         0.929226         1.506339
 C        -0.993940         1.431972         1.882081
 C        -3.845406         0.867675         1.950530
 O        -4.240451        -0.548265         1.565488
 C        -3.094622        -1.389896         1.206696
 C        -1.955972        -0.489705         1.744661
 H         0.661207        -0.899788         0.793781
 H        -1.940628         1.987150        -0.299209
 H        -2.434896         0.252105        -0.657559
 H        -0.847533         2.344989         1.384698
 H        -0.729692         1.259326         2.970392
 H        -3.926090         1.014287         3.105022
 H        -4.544039         1.553941         1.444993
 H        -3.167034        -2.390051         1.755520
 H        -3.023264        -1.659833         0.153866
 H        -1.695253        -0.735855         2.817126
