19
Iteration:  3248charge 0 multiplicity 1
 O         0.350961        -0.331097         0.461085
 C        -0.773129         0.296367         0.918995
 C        -1.985664         0.727139         0.015004
 C        -2.471657         1.013766         1.455718
 C        -1.144560         1.728260         1.781675
 C        -3.847099         0.794765         1.923522
 O        -4.147702        -0.605878         1.499754
 C        -2.927623        -1.382906         1.537612
 C        -1.881342        -0.346620         1.897662
 H         0.667443         0.376338        -0.242589
 H        -1.929200         1.576431        -0.714577
 H        -2.386953        -0.203482        -0.618385
 H        -1.186480         2.607738         1.173700
 H        -0.876495         1.846697         2.851158
 H        -3.836735         0.809152         3.051750
 H        -4.599160         1.491789         1.549551
 H        -3.024641        -2.110414         2.340792
 H        -2.816171        -1.832652         0.509013
 H        -1.556621        -0.262044         2.965221
