19
Iteration:  3312charge 0 multiplicity 1
 O         0.411158        -0.083780         0.380006
 C        -0.849640         0.305404         0.929808
 C        -2.012173         0.716634        -0.013323
 C        -2.472042         0.936990         1.472021
 C        -1.117140         1.629871         1.814809
 C        -3.892909         0.886669         1.832454
 O        -4.159442        -0.537199         1.511799
 C        -2.981003        -1.404695         1.645978
 C        -1.712385        -0.495979         1.866737
 H         0.515692        -1.158025         0.330155
 H        -1.967979         1.669977        -0.571613
 H        -2.493057        -0.133894        -0.661383
 H        -1.085046         2.626385         1.372037
 H        -0.957234         1.559479         2.895411
 H        -4.135834         1.011084         2.939858
 H        -4.646542         1.445675         1.280533
 H        -3.107493        -2.067431         2.529510
 H        -2.994405        -2.008351         0.691902
 H        -1.368228        -0.612209         2.937022
