19
Iteration:  3502
 O         0.554649        -0.117113         0.464746
 C        -0.799455         0.292641         0.909456
 C        -1.833535         0.673894        -0.138478
 C        -2.525730         0.985135         1.350152
 C        -1.167337         1.543805         1.778402
 C        -3.884606         0.839697         2.039850
 O        -4.237250        -0.581607         1.792742
 C        -3.036146        -1.385567         1.359236
 C        -2.014303        -0.442059         1.821756
 H         1.173987         0.726355         0.783906
 H        -1.585491         1.658186        -0.780868
 H        -2.270775        -0.168335        -0.666469
 H        -0.709666         2.420598         1.261935
 H        -0.962302         1.434523         2.830439
 H        -3.697362         1.066663         3.142564
 H        -4.710242         1.465292         1.670645
 H        -3.198318        -2.361308         1.756289
 H        -3.090075        -1.356292         0.234284
 H        -1.565410        -0.516454         2.807466
