19
Iteration:  2627
 O         0.397745        -0.160800         0.384792
 C        -0.874101         0.313256         0.961260
 C        -1.992297         0.874682         0.048811
 C        -2.436039         0.890849         1.536333
 C        -1.062607         1.523689         1.880396
 C        -3.889968         0.768954         1.896967
 O        -4.151102        -0.531035         1.461806
 C        -3.039208        -1.325656         1.401191
 C        -1.868618        -0.469500         1.854711
 H         1.193319         0.004516         1.089843
 H        -1.737266         1.732157        -0.575295
 H        -2.436369         0.109122        -0.531387
 H        -0.659753         2.425618         1.401756
 H        -0.857435         1.522866         2.863903
 H        -3.937975         0.838359         2.980693
 H        -4.547136         1.555183         1.482549
 H        -3.228152        -2.257298         2.046564
 H        -2.898870        -1.802129         0.451230
 H        -1.553941        -0.687447         2.879543
