19
Iteration:  3907charge 0 multiplicity 1
 O         0.337857        -0.062421         0.402821
 C        -0.865628         0.338668         0.954478
 C        -2.055542         0.625601        -0.054209
 C        -2.446446         0.945372         1.562652
 C        -1.129274         1.646628         1.763931
 C        -3.850306         0.870879         1.800903
 O        -4.144788        -0.560651         1.553808
 C        -2.897025        -1.411634         1.599565
 C        -1.773308        -0.450739         1.857881
 H         0.502839        -1.135117         0.532591
 H        -1.865347         1.540769        -0.537571
 H        -2.470256        -0.230797        -0.653165
 H        -0.990810         2.621111         1.287751
 H        -0.884375         1.644083         2.871486
 H        -4.042188         1.108054         2.874479
 H        -4.382872         1.470489         1.057457
 H        -3.051187        -1.962399         2.485315
 H        -2.875838        -1.950903         0.663315
 H        -1.484630        -0.618825         2.886872
