19
Iteration:  3400charge 0 multiplicity 1
 O         0.469037        -0.229692         0.541182
 C        -0.762356         0.339424         0.926842
 C        -1.965895         0.833544        -0.018498
 C        -2.471585         1.007911         1.396916
 C        -1.109866         1.616340         1.803612
 C        -3.943686         0.759973         1.784464
 O        -4.163147        -0.634587         1.860961
 C        -2.985000        -1.348992         1.389487
 C        -1.856916        -0.395087         1.747361
 H         0.289722        -0.614018        -0.338287
 H        -1.882458         1.721021        -0.655551
 H        -2.403668        -0.132497        -0.568158
 H        -0.857892         2.562748         1.353085
 H        -0.964028         1.658899         2.924228
 H        -4.083532         1.280586         2.762103
 H        -4.615762         1.268811         1.095269
 H        -2.978587        -2.275656         2.003237
 H        -3.327300        -1.710339         0.389058
 H        -1.585258        -0.403524         2.853763
