19
Iteration:    98charge 0 multiplicity 1
 O         0.365200        -0.284399         0.435549
 C        -0.842728         0.334016         0.846110
 C        -1.938085         0.855729         0.006305
 C        -2.480761         0.905867         1.546103
 C        -1.109273         1.520152         1.850067
 C        -3.979733         0.858468         1.663567
 O        -4.140921        -0.569694         1.822847
 C        -2.909007        -1.342087         1.363190
 C        -1.837375        -0.380433         1.857758
 H         0.993436        -0.388870         1.350521
 H        -1.811832         1.843173        -0.329715
 H        -2.334206         0.246033        -0.737265
 H        -0.888639         2.544220         1.514391
 H        -0.924356         1.281527         2.911430
 H        -4.530849         1.369118         2.453921
 H        -4.407342         1.245966         0.758230
 H        -2.972331        -2.281491         1.827859
 H        -2.861286        -1.367866         0.291683
 H        -1.356152        -0.565812         2.833074
