19
Iteration:  4100
 O         0.539906        -0.078304         0.667428
 C        -0.810584         0.340442         0.850053
 C        -1.896864         0.635001        -0.180543
 C        -2.562751         0.951947         1.399418
 C        -1.094673         1.571299         1.635861
 C        -3.926632         0.784784         1.995215
 O        -4.235088        -0.580927         1.836193
 C        -3.002840        -1.325862         1.443018
 C        -1.899966        -0.432939         1.768558
 H         0.730563         0.212779        -0.178024
 H        -1.691680         1.414479        -0.944480
 H        -2.363489        -0.294240        -0.578033
 H        -1.012453         2.503370         1.104345
 H        -0.557308         1.659080         2.592000
 H        -3.929699         1.208301         3.005901
 H        -4.749461         1.325676         1.512649
 H        -3.062307        -2.337791         1.869244
 H        -3.055769        -1.556017         0.379643
 H        -1.520363        -0.597314         2.857997
