19
Iteration:  1849
 O         0.547517        -0.209549         0.530840
 C        -0.730254         0.341699         0.944344
 C        -1.900897         0.862131        -0.000169
 C        -2.492405         0.936315         1.479340
 C        -1.072890         1.527121         1.947428
 C        -3.887050         0.797693         1.950992
 O        -4.251527        -0.560990         1.709978
 C        -3.147673        -1.335140         1.155978
 C        -1.880669        -0.496418         1.758104
 H         0.618574         0.249007        -0.343613
 H        -1.674862         1.839956        -0.560457
 H        -2.359381         0.155613        -0.784600
 H        -0.916425         2.544086         1.712265
 H        -1.001284         1.347912         3.127355
 H        -3.962539         1.069253         3.036743
 H        -4.651229         1.408529         1.340066
 H        -3.216681        -2.427542         1.539847
 H        -3.347959        -1.305799         0.088372
 H        -1.542797        -0.871507         2.770822
