19
Iteration:   830charge 0 multiplicity 1
 O         0.382580        -0.180255         0.385958
 C        -0.843832         0.353855         1.006344
 C        -1.921690         0.913222         0.127267
 C        -2.422251         0.974618         1.541902
 C        -1.099356         1.512668         1.936735
 C        -3.835213         0.736229         1.973354
 O        -4.158439        -0.479760         1.364832
 C        -3.044976        -1.389945         1.349381
 C        -1.880573        -0.479798         1.806160
 H         0.291222        -1.260659         0.639671
 H        -1.553934         1.826311        -0.426438
 H        -2.450144         0.416618        -0.657767
 H        -0.899241         2.504161         1.448710
 H        -0.766699         1.300788         2.920933
 H        -3.853993         0.773637         3.064724
 H        -4.527072         1.547374         1.625571
 H        -3.098014        -2.328597         1.882756
 H        -2.994717        -1.765404         0.273115
 H        -1.823495        -0.609529         2.914791
