19
Iteration:   796
 O         0.551071        -0.177138         0.546986
 C        -0.752465         0.380928         0.839633
 C        -2.040256         0.883797         0.045347
 C        -2.492444         0.928043         1.607097
 C        -1.030344         1.477432         1.905144
 C        -3.928720         0.768367         1.984471
 O        -4.269879        -0.496057         1.499955
 C        -3.056258        -1.299267         1.262652
 C        -1.829523        -0.520443         1.699461
 H         0.542686        -1.144878         0.909895
 H        -1.781173         1.828403        -0.406865
 H        -2.687375         0.187528        -0.509083
 H        -0.687834         2.551331         1.705912
 H        -0.582948         1.218106         2.808035
 H        -4.087431         0.814818         3.060046
 H        -4.559845         1.533797         1.423033
 H        -3.214389        -2.219656         1.840591
 H        -3.078643        -1.465146         0.146858
 H        -1.466220        -0.666649         2.741434
