19
Iteration:  2173charge 0 multiplicity 1
 O         0.391735        -0.209624         0.394992
 C        -0.809702         0.317200         0.959520
 C        -1.790525         0.997105         0.000138
 C        -2.452055         0.937863         1.450020
 C        -1.178643         1.510242         2.070798
 C        -3.956098         0.832710         1.824431
 O        -4.166829        -0.587485         1.789128
 C        -3.083648        -1.330164         1.217431
 C        -1.802180        -0.569441         1.673551
 H         0.935912        -0.618583         1.030090
 H        -1.699020         2.064519        -0.309722
 H        -2.366302         0.390655        -0.738346
 H        -0.913875         2.499415         1.880771
 H        -0.542671         1.298129         3.002719
 H        -4.205602         1.206141         2.841946
 H        -4.519320         1.284545         1.008102
 H        -3.182933        -2.244469         1.736398
 H        -3.258130        -1.435023         0.106984
 H        -1.638870        -0.754222         2.746018
