19
Iteration:  4583
 O         0.525211        -0.006496         0.517268
 C        -0.761371         0.366647         0.796743
 C        -1.893599         0.734483        -0.092327
 C        -2.483043         0.777907         1.400680
 C        -1.183234         1.452467         1.818488
 C        -3.825894         0.892539         1.815381
 O        -4.276655        -0.498886         1.863468
 C        -3.087230        -1.401974         1.495993
 C        -1.853808        -0.513712         1.669042
 H         1.064260         0.267007         1.390284
 H        -2.071380         1.669773        -0.617427
 H        -2.274374        -0.104169        -0.663267
 H        -1.010544         2.446733         1.374494
 H        -1.013415         1.377909         2.901998
 H        -3.964725         1.433299         2.759167
 H        -4.450209         1.355063         1.133403
 H        -3.196914        -2.223213         2.274364
 H        -3.310812        -1.799613         0.495344
 H        -1.355469        -0.748948         2.613807
