19
Iteration:  4021
 O         0.365876        -0.196456         0.458803
 C        -0.760150         0.310543         0.939174
 C        -1.967529         0.829837        -0.076657
 C        -2.483038         0.953395         1.381860
 C        -0.989336         1.612376         1.770896
 C        -3.928665         0.762723         1.638472
 O        -4.155910        -0.676203         1.977564
 C        -3.012518        -1.400908         1.507305
 C        -1.888507        -0.382523         1.846762
 H         0.837815         0.571837         0.352534
 H        -1.840619         1.866434        -0.585560
 H        -2.348284         0.138391        -0.797500
 H        -0.609363         2.459489         1.126894
 H        -0.679726         1.733602         2.822599
 H        -4.429968         1.266735         2.445851
 H        -4.397266         0.886954         0.611548
 H        -3.135097        -2.310321         2.149632
 H        -3.097961        -1.519264         0.425421
 H        -1.966868        -0.083469         2.990658
