19
Iteration:   669charge 0 multiplicity 1
 O         0.541558        -0.222339         0.541141
 C        -0.767725         0.269752         0.967599
 C        -1.767209         0.900953         0.027902
 C        -2.500907         0.911078         1.452966
 C        -1.203152         1.522222         1.988387
 C        -3.906806         0.829429         1.923439
 O        -4.231868        -0.572859         1.730904
 C        -3.112168        -1.274214         1.199342
 C        -1.887964        -0.500666         1.635084
 H         0.347387        -0.333309        -0.548174
 H        -1.583936         1.927027        -0.432791
 H        -2.307011         0.419127        -0.753052
 H        -0.874122         2.483023         1.481901
 H        -0.952102         1.393931         3.156485
 H        -3.965105         1.177680         3.053856
 H        -4.655627         1.448875         1.445567
 H        -2.940248        -2.233421         1.678537
 H        -3.282323        -1.512098         0.140272
 H        -1.652704        -0.669604         2.700638
