19
Iteration:  2728
 O         0.484573        -0.137383         0.478318
 C        -0.784278         0.319432         0.923278
 C        -1.962423         0.790699        -0.004458
 C        -2.464162         0.951908         1.498936
 C        -1.126696         1.533888         1.833034
 C        -3.874892         0.888925         1.990326
 O        -4.257083        -0.518442         1.544310
 C        -3.021105        -1.476743         1.345883
 C        -1.866290        -0.511504         1.779581
 H         1.206752         0.504092         0.938150
 H        -1.981750         1.696177        -0.562519
 H        -2.344903        -0.061816        -0.551361
 H        -1.032684         2.404415         1.216078
 H        -0.748560         1.518344         2.849728
 H        -3.909921         1.022332         3.070455
 H        -4.597935         1.539032         1.489908
 H        -3.130354        -2.155267         2.189854
 H        -3.056128        -1.914072         0.369039
 H        -1.514682        -0.734556         2.825063
