19
Iteration:  2105charge 0 multiplicity 1
 O         0.500191        -0.108307         0.426252
 C        -0.752510         0.311175         0.939826
 C        -1.990338         0.869564         0.056974
 C        -2.402870         0.876904         1.545162
 C        -1.095199         1.471283         1.923926
 C        -3.831247         0.827448         1.972398
 O        -4.281064        -0.492729         1.476615
 C        -3.148285        -1.369081         1.333106
 C        -1.870675        -0.517885         1.701723
 H         1.213588        -0.063227         1.166966
 H        -1.745016         1.796218        -0.423348
 H        -2.505401         0.123139        -0.633864
 H        -0.896229         2.547174         1.692589
 H        -0.705381         1.215275         2.891228
 H        -3.810153         0.627468         3.032346
 H        -4.562134         1.588140         1.712908
 H        -3.172655        -2.239908         1.972903
 H        -3.133539        -1.644008         0.310153
 H        -1.764415        -0.677150         2.744060
