19
Iteration:  2444
 O         0.510574         0.006216         0.529407
 C        -0.782569         0.253219         0.969293
 C        -1.862926         0.841287         0.015164
 C        -2.382797         0.877772         1.534780
 C        -1.136306         1.529903         1.892457
 C        -3.827900         0.839248         1.965952
 O        -4.339974        -0.555074         1.624811
 C        -3.153024        -1.353119         1.197125
 C        -1.835422        -0.576085         1.736293
 H         0.515214        -0.754384         0.037568
 H        -1.719124         1.752021        -0.584524
 H        -2.392292         0.209949        -0.647494
 H        -0.842692         2.526809         1.472352
 H        -0.783611         1.397368         2.889113
 H        -3.814451         1.001027         3.061201
 H        -4.435074         1.637222         1.505519
 H        -3.315526        -2.304894         1.766759
 H        -3.184884        -1.552195         0.087040
 H        -1.651535        -0.786665         2.819626
