19
Iteration:  2569
 O         0.552770        -0.051918         0.621915
 C        -0.826949         0.295965         0.856881
 C        -1.932217         0.887679        -0.032598
 C        -2.428781         0.915896         1.497801
 C        -1.065978         1.522763         1.861212
 C        -3.856272         0.823193         1.901621
 O        -4.310507        -0.568690         1.707161
 C        -3.072109        -1.419198         1.231825
 C        -1.897408        -0.508319         1.769657
 H         0.430930        -0.631612        -0.069854
 H        -1.880737         1.959571        -0.415788
 H        -2.463331         0.074457        -0.664921
 H        -0.697601         2.405344         1.442745
 H        -0.775759         1.297543         2.905711
 H        -3.857811         1.046059         2.981794
 H        -4.516880         1.511063         1.359691
 H        -3.187588        -2.289069         1.885252
 H        -3.149329        -1.646042         0.133601
 H        -1.486441        -0.722315         2.750453
