19
Iteration:  1655charge 0 multiplicity 1
 O         0.477187        -0.131481         0.538294
 C        -0.750815         0.316696         0.926073
 C        -1.937324         0.850265         0.064953
 C        -2.406437         0.909652         1.506177
 C        -1.056006         1.513498         1.966703
 C        -3.883942         0.840124         1.865154
 O        -4.309305        -0.553252         1.699895
 C        -3.104942        -1.317733         1.218818
 C        -1.852821        -0.608971         1.708641
 H         0.814937         0.250183        -0.280384
 H        -1.782755         1.795261        -0.465240
 H        -2.372271         0.188268        -0.730316
 H        -0.853558         2.600199         1.578728
 H        -0.700571         1.368257         3.048729
 H        -4.172568         1.017841         2.899677
 H        -4.499239         1.474781         1.194041
 H        -3.209701        -2.275507         1.625730
 H        -3.177898        -1.489040         0.111899
 H        -1.492043        -0.735222         2.741363
