19
Iteration:  2095charge 0 multiplicity 1
 O         0.454855        -0.192119         0.413741
 C        -0.725306         0.365600         0.919058
 C        -2.054844         0.872307         0.024082
 C        -2.446592         0.908779         1.481754
 C        -1.051008         1.506613         2.035169
 C        -3.829682         0.733199         2.002245
 O        -4.215254        -0.460270         1.434601
 C        -3.087133        -1.357207         1.322148
 C        -1.884411        -0.507546         1.750926
 H         1.183130        -0.052318         1.036816
 H        -1.938219         1.796841        -0.508920
 H        -2.559062         0.046384        -0.606762
 H        -0.834919         2.560196         1.861055
 H        -1.038395         1.274436         3.107895
 H        -3.873997         0.932146         3.101046
 H        -4.463960         1.511175         1.569317
 H        -3.404026        -2.121538         1.961684
 H        -3.141989        -1.842663         0.349309
 H        -1.479649        -0.640060         2.718022
