19
Iteration:  2216charge 0 multiplicity 1
 O         0.434665        -0.248638         0.432683
 C        -0.752228         0.356076         0.886084
 C        -1.939456         0.989796         0.103722
 C        -2.464490         1.012101         1.542238
 C        -0.990440         1.457120         2.011464
 C        -4.035775         0.798349         1.739455
 O        -4.148610        -0.649776         1.800118
 C        -3.085863        -1.270768         1.191507
 C        -1.890241        -0.439832         1.664871
 H         0.707307        -0.932976         1.191536
 H        -1.640873         1.874135        -0.511497
 H        -2.415294         0.249430        -0.592023
 H        -0.717322         2.505401         1.870220
 H        -0.661007         1.189751         3.120204
 H        -4.277158         1.137775         2.768404
 H        -4.763336         1.148476         1.012975
 H        -3.035096        -2.233098         1.627327
 H        -3.015765        -1.350133         0.097280
 H        -1.522401        -0.760116         2.621592
