19
Iteration:   427charge 0 multiplicity 1
 O         0.396802        -0.256702         0.527413
 C        -0.811935         0.284127         0.941767
 C        -1.904597         0.895420        -0.011803
 C        -2.475388         0.940877         1.462653
 C        -1.042487         1.490656         1.927639
 C        -3.965820         0.839070         1.813311
 O        -4.120832        -0.615142         1.844027
 C        -2.995590        -1.268130         1.206409
 C        -1.986767        -0.415013         1.689944
 H         1.115338         0.150989         0.971787
 H        -1.691078         1.728940        -0.693696
 H        -2.398896         0.125376        -0.749774
 H        -0.765513         2.468621         1.510482
 H        -0.615905         1.293557         2.905638
 H        -4.221519         1.136857         2.775315
 H        -4.637509         1.306614         1.122740
 H        -2.943973        -2.251544         1.686178
 H        -3.033996        -1.391264         0.042103
 H        -1.700720        -0.542612         2.738460
