19
Iteration:  2642
 O         0.389948        -0.164470         0.364981
 C        -0.759378         0.295929         0.927060
 C        -1.991846         0.781396         0.109725
 C        -2.454894         1.007342         1.601434
 C        -1.026602         1.564599         1.884266
 C        -3.967388         0.822896         1.932453
 O        -4.235893        -0.551295         1.397319
 C        -2.925568        -1.385062         1.413242
 C        -1.847203        -0.435679         1.809507
 H         0.738367        -0.689774         1.000487
 H        -1.845838         1.797394        -0.268183
 H        -2.558337         0.123442        -0.569382
 H        -0.943227         2.603342         1.494544
 H        -0.511203         1.369950         2.945647
 H        -4.309302         0.963925         2.989083
 H        -4.659564         1.390387         1.299586
 H        -2.990830        -2.260679         2.090402
 H        -2.857694        -1.845428         0.398658
 H        -1.519809        -0.527223         2.878673
