19
Iteration:  1862charge 0 multiplicity 1
 O         0.449620        -0.210064         0.548235
 C        -0.775956         0.331811         0.902418
 C        -1.868213         0.898096         0.065549
 C        -2.393836         0.860918         1.492149
 C        -1.196233         1.533474         1.991056
 C        -3.884709         0.829357         1.836348
 O        -4.249769        -0.589648         1.770500
 C        -3.125208        -1.263084         1.216059
 C        -1.815421        -0.525344         1.626690
 H         0.889516         0.040075        -0.288253
 H        -1.756005         1.967011        -0.325080
 H        -2.301067         0.137893        -0.574204
 H        -0.916279         2.544789         1.688494
 H        -0.715121         1.208235         2.930520
 H        -4.002807         1.062520         2.921795
 H        -4.512678         1.548260         1.250468
 H        -3.249100        -2.341827         1.592215
 H        -3.022282        -1.375115         0.078876
 H        -1.565471        -0.698486         2.675241
