19
Iteration:  2082charge 0 multiplicity 1
 O         0.342077        -0.264266         0.390639
 C        -0.858531         0.339825         0.901603
 C        -1.957876         0.884349         0.036007
 C        -2.451122         0.995514         1.567455
 C        -1.098873         1.494180         2.068228
 C        -3.878846         0.838454         1.999393
 O        -4.187715        -0.479415         1.354087
 C        -2.971226        -1.393553         1.346849
 C        -1.807764        -0.486074         1.751671
 H         1.067149         0.020745         1.010749
 H        -2.039334         1.823870        -0.509718
 H        -2.423419         0.051017        -0.540889
 H        -0.684324         2.526821         1.757023
 H        -0.791918         1.247344         3.047011
 H        -3.994610         0.728182         3.070657
 H        -4.668153         1.492465         1.590707
 H        -2.947168        -2.192816         2.089791
 H        -2.879573        -1.779822         0.390313
 H        -1.488998        -0.802827         2.710033
