19
Iteration:  2747charge 0 multiplicity 1
 O         0.454903        -0.021785         0.509973
 C        -0.859998         0.226122         0.861417
 C        -1.989298         0.754911        -0.024092
 C        -2.420837         0.851211         1.444964
 C        -1.107670         1.565417         1.817495
 C        -3.873772         0.797040         1.915262
 O        -4.217460        -0.515603         1.629033
 C        -3.067647        -1.314770         1.382613
 C        -1.816641        -0.528508         1.814772
 H         1.029183        -0.245854         1.375335
 H        -1.610357         1.713316        -0.547338
 H        -2.562149         0.123143        -0.677461
 H        -0.786245         2.618167         1.512782
 H        -0.830678         1.379113         2.808092
 H        -3.955884         0.983375         3.001350
 H        -4.476219         1.518050         1.325952
 H        -3.207001        -2.326214         1.891063
 H        -2.990668        -1.442745         0.315667
 H        -1.448942        -0.651659         2.818483
