19
Iteration:  3702
 O         0.477245        -0.123981         0.511124
 C        -0.812712         0.289324         0.894946
 C        -1.880627         0.810427        -0.066434
 C        -2.525499         0.961533         1.452224
 C        -1.077846         1.539974         1.749529
 C        -3.939915         0.834686         1.847815
 O        -4.179713        -0.633318         1.967081
 C        -3.037217        -1.335117         1.279569
 C        -1.923394        -0.471535         1.708448
 H         1.174583        -0.047859         1.191053
 H        -1.701385         1.733616        -0.567454
 H        -2.205706        -0.088008        -0.706043
 H        -0.814429         2.457520         1.264899
 H        -0.875126         1.477412         2.837249
 H        -4.180981         1.330227         2.789784
 H        -4.677801         1.184384         1.065106
 H        -2.900112        -2.309099         1.727645
 H        -3.334144        -1.367374         0.244760
 H        -1.546673        -0.522518         2.719667
