19
Iteration:  1965
 O         0.476909        -0.075808         0.498788
 C        -0.787817         0.351931         0.860744
 C        -1.870624         0.847282        -0.023036
 C        -2.462353         0.936431         1.436221
 C        -0.984455         1.435680         1.908814
 C        -3.953558         0.834078         2.022895
 O        -4.305749        -0.551330         1.645774
 C        -3.077342        -1.355303         1.265953
 C        -1.873351        -0.550921         1.730938
 H         0.983210        -0.240585         1.365244
 H        -1.767668         1.746744        -0.581905
 H        -2.430327         0.161752        -0.721537
 H        -0.812390         2.492336         1.631763
 H        -0.654148         1.191277         2.927489
 H        -3.909152         1.055394         3.109350
 H        -4.705448         1.427562         1.514069
 H        -3.185285        -2.355123         1.692583
 H        -3.278699        -1.368107         0.124797
 H        -1.532658        -0.778562         2.791876
