19
Iteration:  1522charge 0 multiplicity 1
 O         0.518429        -0.093497         0.499849
 C        -0.779001         0.263833         0.957942
 C        -1.870068         0.908270         0.029917
 C        -2.436179         0.902941         1.500803
 C        -0.997898         1.508951         1.906576
 C        -3.825027         0.778284         2.008249
 O        -4.288562        -0.540219         1.478423
 C        -3.195068        -1.358322         1.330175
 C        -1.967684        -0.534944         1.774485
 H         0.636623         0.521558        -0.389574
 H        -1.560038         1.905412        -0.351846
 H        -2.381603         0.257765        -0.687157
 H        -0.627900         2.395453         1.480632
 H        -0.643721         1.312307         3.008011
 H        -3.906387         0.788906         3.136072
 H        -4.731698         1.305132         1.586167
 H        -3.328341        -2.314301         1.895716
 H        -3.081956        -1.711523         0.270121
 H        -1.867494        -0.664180         2.903394
