19
Iteration:  1913charge 0 multiplicity 1
 O         0.421314        -0.254664         0.450750
 C        -0.799780         0.310047         0.954120
 C        -1.875240         1.000579        -0.004422
 C        -2.443821         0.911954         1.500995
 C        -0.972917         1.471407         1.999993
 C        -3.994347         0.793170         1.793215
 O        -4.311093        -0.645245         1.820485
 C        -3.010420        -1.317651         1.212146
 C        -1.897918        -0.389857         1.707843
 H         1.071052         0.361255         0.577911
 H        -1.504959         1.945288        -0.391280
 H        -2.266362         0.231085        -0.742209
 H        -0.820040         2.468570         1.698278
 H        -0.765574         1.223563         3.141993
 H        -4.351978         1.287818         2.700664
 H        -4.387477         1.351424         0.925739
 H        -2.909730        -2.360006         1.594388
 H        -3.179383        -1.390318         0.173676
 H        -1.390227        -0.798315         2.624272
