19
Iteration:  1350charge 0 multiplicity 1
 O         0.496629        -0.136034         0.468394
 C        -0.740014         0.299733         0.963777
 C        -1.882026         0.957337         0.018149
 C        -2.444021         0.847495         1.506458
 C        -1.102687         1.354650         2.054652
 C        -3.983350         0.888559         1.878725
 O        -4.205296        -0.545448         1.792181
 C        -3.158811        -1.300587         1.139620
 C        -1.843332        -0.559197         1.583586
 H         1.225294         0.350961         0.975709
 H        -1.561234         1.909619        -0.466933
 H        -2.181682         0.276969        -0.775271
 H        -0.929659         2.478262         1.693696
 H        -0.904406         1.106222         3.119899
 H        -4.243055         1.266552         2.853990
 H        -4.553252         1.364281         1.116242
 H        -3.350045        -2.281816         1.545906
 H        -3.266849        -1.254384         0.016526
 H        -1.710492        -0.888055         2.618353
