19
Iteration:   936charge 0 multiplicity 1
 O         0.446860        -0.185677         0.480462
 C        -0.756859         0.312871         0.926305
 C        -1.919736         0.897186         0.017660
 C        -2.434725         0.978755         1.480938
 C        -1.014976         1.463573         1.936778
 C        -3.842743         0.797622         2.015185
 O        -4.310148        -0.553318         1.544480
 C        -3.073952        -1.355157         1.203940
 C        -1.963082        -0.487238         1.758476
 H         1.204194         0.138434         1.055182
 H        -1.640719         1.833874        -0.419401
 H        -2.399814         0.089161        -0.562727
 H        -0.900434         2.610351         1.658124
 H        -0.742145         1.323847         2.965329
 H        -3.714001         0.872255         3.081248
 H        -4.530914         1.602362         1.597074
 H        -3.258784        -2.312491         1.773973
 H        -2.988927        -1.603639         0.126628
 H        -1.815054        -0.738045         2.847519
