19
Iteration:  1725charge 0 multiplicity 1
 O         0.358135        -0.329714         0.451301
 C        -0.784240         0.353411         0.873024
 C        -2.042508         0.865299         0.089385
 C        -2.455939         0.908424         1.673633
 C        -1.030782         1.558658         1.978249
 C        -3.907334         0.758258         1.956545
 O        -4.217385        -0.430392         1.301912
 C        -2.943275        -1.387324         1.408501
 C        -1.770025        -0.446696         1.769510
 H         0.862483         0.285862         0.050669
 H        -2.008043         1.881787        -0.344556
 H        -2.593000         0.219310        -0.567328
 H        -1.139262         2.624263         1.711077
 H        -0.598792         1.451297         2.926798
 H        -4.168020         0.822369         3.051767
 H        -4.530214         1.487828         1.428478
 H        -3.258122        -2.168774         2.099238
 H        -2.971591        -1.835165         0.433060
 H        -1.303753        -0.646357         2.766584
