19
Iteration:  3332charge 0 multiplicity 1
 O         0.500724        -0.050937         0.354951
 C        -0.740666         0.337721         0.860787
 C        -1.901436         0.616807        -0.025441
 C        -2.467701         0.930445         1.484162
 C        -1.130609         1.585782         1.736864
 C        -3.895618         0.765245         1.988313
 O        -4.300016        -0.515048         1.568145
 C        -3.071968        -1.382362         1.521871
 C        -1.860167        -0.376334         1.859281
 H         0.818171        -0.660743         1.149033
 H        -1.802985         1.470536        -0.683862
 H        -2.310803        -0.217044        -0.543215
 H        -0.928668         2.597194         1.293388
 H        -0.807175         1.614550         2.785148
 H        -3.945166         0.792640         3.089115
 H        -4.556115         1.533630         1.598855
 H        -3.062370        -2.063146         2.409328
 H        -2.897686        -2.021802         0.668007
 H        -1.569721        -0.423188         2.942405
