19
Iteration:  1977
 O         0.537140        -0.056843         0.475286
 C        -0.752470         0.301631         0.903839
 C        -1.910208         0.901676        -0.034733
 C        -2.478139         0.873183         1.510119
 C        -0.961237         1.456479         1.899406
 C        -3.947511         0.754968         1.979848
 O        -4.285592        -0.539801         1.598202
 C        -3.184644        -1.304331         1.351884
 C        -1.939450        -0.464797         1.661001
 H         0.911407        -0.488275         1.151239
 H        -1.617106         1.804455        -0.481323
 H        -2.247820         0.004748        -0.638780
 H        -0.731339         2.406784         1.464989
 H        -0.587291         1.419096         2.991853
 H        -3.930936         0.709085         3.083685
 H        -4.741836         1.445774         1.745519
 H        -3.234921        -2.253426         1.945945
 H        -2.987376        -1.699055         0.226342
 H        -1.445250        -0.734465         2.672201
