19
Iteration:  1616charge 0 multiplicity 1
 O         0.405983        -0.263191         0.530632
 C        -0.807016         0.351980         0.904216
 C        -1.851418         1.010267         0.015222
 C        -2.477006         0.992960         1.421925
 C        -1.038081         1.463092         2.030796
 C        -3.974387         0.761735         1.744858
 O        -4.230349        -0.637850         1.880153
 C        -3.040438        -1.285401         1.234254
 C        -1.832252        -0.511185         1.668072
 H         0.903777         0.313211        -0.017259
 H        -1.511795         1.978561        -0.428885
 H        -2.356774         0.346743        -0.653716
 H        -0.618889         2.429454         1.837180
 H        -0.937370         1.069759         2.991417
 H        -4.141405         1.331116         2.707819
 H        -4.600805         1.201548         0.964825
 H        -3.098850        -2.394347         1.535176
 H        -3.172602        -1.242451         0.149748
 H        -1.696625        -0.740545         2.724430
