19
Iteration:  3844
 O         0.359578        -0.237897         0.451106
 C        -0.882545         0.334220         0.910328
 C        -1.933728         0.735167        -0.114230
 C        -2.506833         0.990305         1.483539
 C        -1.099412         1.625371         1.729232
 C        -3.922196         0.736378         2.022464
 O        -4.157913        -0.532455         1.464127
 C        -2.949981        -1.347053         1.638617
 C        -1.804562        -0.432287         1.839785
 H         1.242861         0.416912         0.562042
 H        -1.690109         1.662909        -0.620656
 H        -2.468448        -0.045712        -0.815876
 H        -0.883109         2.555517         1.165064
 H        -0.942636         1.630913         2.841122
 H        -3.988720         0.818329         3.098016
 H        -4.785365         1.345721         1.690034
 H        -3.085003        -2.183409         2.367760
 H        -2.793097        -1.929124         0.645637
 H        -1.313632        -0.369165         2.900129
