19
Iteration:  1574
 O         0.386114        -0.270044         0.560871
 C        -0.806257         0.274002         0.962461
 C        -1.926240         1.018474         0.031534
 C        -2.454511         0.940991         1.440930
 C        -1.127507         1.515425         1.930828
 C        -3.855241         0.812548         1.804685
 O        -4.160819        -0.572475         1.843972
 C        -3.056588        -1.361889         1.135786
 C        -1.859627        -0.533734         1.661660
 H         1.021595         0.454741         0.704854
 H        -1.671606         2.047372        -0.257394
 H        -2.489416         0.438355        -0.647393
 H        -0.861481         2.493078         1.493099
 H        -0.761012         1.462318         3.071407
 H        -4.057297         1.142745         2.803257
 H        -4.594507         1.303317         1.125381
 H        -3.219511        -2.428094         1.536761
 H        -3.182812        -1.238875         0.095488
 H        -1.424584        -0.909147         2.592780
