19
Iteration:  2089charge 0 multiplicity 1
 O         0.400816        -0.238772         0.397709
 C        -0.779548         0.369753         0.892520
 C        -2.012395         0.867092         0.013945
 C        -2.475497         0.959942         1.482164
 C        -1.054786         1.508586         2.086185
 C        -3.842565         0.756570         2.029388
 O        -4.199051        -0.446336         1.396584
 C        -3.035168        -1.380170         1.316287
 C        -1.855490        -0.501308         1.772899
 H         1.207045         0.013404         1.098753
 H        -2.163385         1.836308        -0.569845
 H        -2.478210         0.117984        -0.554500
 H        -0.755116         2.535186         1.786906
 H        -1.025413         1.265648         3.200705
 H        -3.948761         0.913427         3.135266
 H        -4.518305         1.419612         1.434835
 H        -3.227591        -2.149072         2.178336
 H        -2.954675        -1.844447         0.263931
 H        -1.366432        -0.823816         2.781782
