19
Iteration:  3935charge 0 multiplicity 1
 O         0.604845        -0.094403         0.530033
 C        -0.790201         0.328429         0.867304
 C        -1.978602         0.669771        -0.097975
 C        -2.529040         0.997007         1.491678
 C        -1.067102         1.622644         1.622152
 C        -3.999601         0.734734         1.969162
 O        -4.240894        -0.606810         1.642054
 C        -3.006492        -1.355654         1.552381
 C        -1.858923        -0.328744         1.849230
 H         0.610421        -1.014453        -0.026278
 H        -1.771801         1.687102        -0.617718
 H        -2.388410        -0.050641        -0.776319
 H        -0.950626         2.571302         1.093808
 H        -0.601171         1.610722         2.596440
 H        -3.950330         0.896884         3.070120
 H        -4.847929         1.379376         1.682928
 H        -3.192362        -2.251388         2.273945
 H        -2.949017        -1.830206         0.537044
 H        -1.684573        -0.504131         2.970361
