19
Iteration:  4380charge 0 multiplicity 1
 O         0.487815        -0.148783         0.492929
 C        -0.852413         0.272811         0.933126
 C        -1.915623         0.801336        -0.044216
 C        -2.490639         0.902152         1.402508
 C        -1.125536         1.561987         1.683037
 C        -3.877850         0.819526         1.905622
 O        -4.243832        -0.587784         1.700241
 C        -2.979715        -1.421633         1.529718
 C        -1.891165        -0.403498         1.824712
 H         0.847774         0.657652         0.399191
 H        -1.594615         1.681186        -0.632286
 H        -2.357673         0.032270        -0.728976
 H        -0.616663         2.418382         1.190822
 H        -0.881608         1.656343         2.802528
 H        -4.060319         1.158557         2.925964
 H        -4.573404         1.422514         1.206123
 H        -3.042118        -2.326173         2.207581
 H        -3.015059        -1.689538         0.448734
 H        -1.683920        -0.340719         2.881433
