19
Iteration:   298
 O         0.313223        -0.248595         0.575395
 C        -0.848402         0.334138         0.895044
 C        -1.928349         0.804172         0.032678
 C        -2.428362         0.970094         1.509458
 C        -1.130693         1.564437         1.836900
 C        -3.813790         0.844878         1.941336
 O        -4.214940        -0.564884         1.421239
 C        -2.994362        -1.366431         1.441023
 C        -1.813795        -0.432590         1.796246
 H         0.767300         0.337406        -0.218352
 H        -1.889377         1.632125        -0.517299
 H        -2.400118        -0.094422        -0.379321
 H        -0.751475         2.508256         1.395840
 H        -0.723708         1.446130         2.865244
 H        -3.827398         0.787542         3.115985
 H        -4.547770         1.569918         1.532366
 H        -3.029010        -2.245607         2.094737
 H        -2.909448        -1.807444         0.489705
 H        -1.441390        -0.459190         2.842088
