19
Iteration:  4814
 O         0.344780        -0.247027         0.475510
 C        -0.796148         0.290949         0.957699
 C        -1.989910         0.748049         0.080184
 C        -2.443517         0.915872         1.550891
 C        -1.179582         1.796883         1.733596
 C        -3.848249         0.832639         1.926898
 O        -4.075090        -0.542692         1.553639
 C        -2.935685        -1.386002         1.305735
 C        -1.904966        -0.460464         1.816449
 H         0.657982        -0.955972         1.201437
 H        -1.912915         1.632233        -0.489004
 H        -2.565680        -0.039500        -0.417703
 H        -1.129798         2.673374         1.080268
 H        -0.663658         2.008473         2.697372
 H        -4.072697         0.892797         3.034798
 H        -4.601549         1.483142         1.546225
 H        -3.043962        -2.249704         1.956766
 H        -2.839153        -1.627920         0.260500
 H        -1.629905        -0.748488         2.802190
