19
Iteration:   509
 O         0.517348        -0.050267         0.442814
 C        -0.753183         0.297768         0.909594
 C        -1.934999         0.818255         0.058702
 C        -2.453578         0.875040         1.551130
 C        -1.083443         1.451178         1.928851
 C        -3.904514         0.815546         1.886481
 O        -4.292578        -0.489659         1.558631
 C        -3.052718        -1.354727         1.308080
 C        -1.875992        -0.481323         1.830744
 H         0.593936        -0.966743         0.255051
 H        -1.844112         1.848448        -0.347414
 H        -2.428688         0.177037        -0.619656
 H        -0.732959         2.462332         1.490293
 H        -0.695179         1.381596         2.993282
 H        -4.228848         1.037223         2.902120
 H        -4.465592         1.510154         1.223302
 H        -3.254475        -2.325483         1.812556
 H        -2.862404        -1.568586         0.273405
 H        -1.642209        -0.684863         2.912653
