19
Iteration:  3298charge 0 multiplicity 1
 O         0.380174        -0.121842         0.445832
 C        -0.850929         0.309135         0.857744
 C        -2.110887         0.815815         0.064605
 C        -2.433885         1.007345         1.500023
 C        -1.084063         1.614501         1.780077
 C        -3.865563         0.825601         1.764882
 O        -4.114072        -0.587732         1.502679
 C        -2.914451        -1.485729         1.644781
 C        -1.851312        -0.443248         1.924385
 H         0.168182        -0.870808        -0.017223
 H        -1.830886         1.702066        -0.508314
 H        -2.745432         0.203137        -0.427144
 H        -0.629169         2.508106         1.228988
 H        -0.638577         1.466625         2.755362
 H        -4.141814         1.191484         2.744825
 H        -4.368579         1.370220         0.961193
 H        -3.153988        -2.073832         2.573190
 H        -2.865861        -2.123572         0.769188
 H        -1.382951        -0.450982         2.906046
