19
Iteration:  1811charge 0 multiplicity 1
 O         0.445839        -0.154906         0.594155
 C        -0.829241         0.331732         0.887193
 C        -1.977725         0.910524        -0.037287
 C        -2.381955         0.937907         1.507031
 C        -1.034488         1.461053         1.932123
 C        -3.853585         0.775809         1.970922
 O        -4.255210        -0.512794         1.542707
 C        -3.095474        -1.366898         1.316471
 C        -1.852913        -0.561630         1.747490
 H         0.829080         0.155620        -0.368994
 H        -1.883084         1.939075        -0.370538
 H        -2.477733         0.351717        -0.775939
 H        -0.773186         2.581151         1.646841
 H        -0.820978         1.343046         2.961293
 H        -3.928038         0.934419         3.055423
 H        -4.601233         1.375208         1.486539
 H        -3.257512        -2.232453         1.887815
 H        -3.006654        -1.593415         0.241643
 H        -1.493039        -0.750586         2.765095
