19
Iteration:   583
 O         0.301354        -0.259100         0.378108
 C        -0.884592         0.304078         0.984420
 C        -1.898633         0.874626         0.125968
 C        -2.437634         0.983934         1.567092
 C        -1.009362         1.574282         1.927461
 C        -3.851039         0.697211         1.980541
 O        -4.191919        -0.473363         1.301432
 C        -3.008840        -1.372359         1.385042
 C        -1.870277        -0.441007         1.795273
 H         0.996326         0.213596         0.616634
 H        -1.631485         1.765046        -0.445413
 H        -2.401227         0.177270        -0.449099
 H        -0.607602         2.427749         1.612309
 H        -0.917185         1.567106         3.040001
 H        -4.001664         0.594503         3.055520
 H        -4.530609         1.445690         1.620823
 H        -3.067029        -2.157811         2.204459
 H        -2.964624        -1.883151         0.372895
 H        -1.773074        -0.594306         2.895128
