19
Iteration:  2531charge 0 multiplicity 1
 O         0.459100        -0.244365         0.363201
 C        -0.756650         0.359900         0.919265
 C        -1.932886         0.911223         0.005607
 C        -2.454474         0.973868         1.538895
 C        -1.128050         1.576624         2.029895
 C        -3.907521         0.797802         1.752701
 O        -4.232759        -0.635204         1.786401
 C        -3.030879        -1.316818         1.248732
 C        -1.883076        -0.466759         1.741313
 H         0.906743        -0.585585         1.224781
 H        -1.651902         1.838582        -0.551958
 H        -2.404913         0.201506        -0.606808
 H        -0.604871         2.610616         1.774232
 H        -1.051280         1.335665         3.116020
 H        -4.104523         1.111709         2.803975
 H        -4.602194         1.387685         1.121099
 H        -2.986067        -2.391220         1.531896
 H        -3.044285        -1.424161         0.156271
 H        -1.623791        -0.756863         2.800523
