19
Iteration:  3956charge 0 multiplicity 1
 O         0.455363        -0.062340         0.700723
 C        -0.855376         0.269293         0.845903
 C        -1.926991         0.726632        -0.139734
 C        -2.492874         0.942109         1.352074
 C        -1.119544         1.604158         1.613557
 C        -3.876401         0.811278         2.039204
 O        -4.241843        -0.599670         1.717052
 C        -2.986971        -1.396282         1.506929
 C        -1.802853        -0.433368         1.749497
 H         0.696094        -0.333767        -0.141125
 H        -1.845804         1.689843        -0.774737
 H        -2.542924        -0.027951        -0.589933
 H        -0.826834         2.466039         0.981185
 H        -0.716839         1.704536         2.620716
 H        -3.829151         1.086205         3.099962
 H        -4.697914         1.406727         1.547574
 H        -3.070616        -2.302765         2.227220
 H        -2.984162        -1.780515         0.450809
 H        -1.533012        -0.315761         2.896723
