19
Iteration:  1772charge 0 multiplicity 1
 O         0.316771        -0.258335         0.406375
 C        -0.794016         0.310948         0.933501
 C        -1.948690         0.913982         0.076792
 C        -2.451156         0.941048         1.595635
 C        -1.013263         1.586621         1.976356
 C        -3.930414         0.750771         1.920387
 O        -4.187669        -0.517009         1.364486
 C        -3.010270        -1.314399         1.400191
 C        -1.818710        -0.526673         1.842536
 H         0.789270         0.347920        -0.151039
 H        -1.773351         1.926307        -0.359737
 H        -2.448805         0.134738        -0.597355
 H        -0.691230         2.479311         1.580195
 H        -0.686424         1.362636         3.052294
 H        -4.164651         0.727546         3.010896
 H        -4.567674         1.549425         1.426855
 H        -3.251022        -2.260929         2.072423
 H        -2.852151        -1.769104         0.403598
 H        -1.491119        -0.756399         2.878636
