19
Iteration:  4926charge 0 multiplicity 1
 O         0.374934        -0.187243         0.513758
 C        -0.826486         0.284514         0.947383
 C        -2.035296         0.679759         0.035801
 C        -2.450674         0.998098         1.470181
 C        -1.032578         1.646870         1.784429
 C        -3.885930         0.779880         1.816290
 O        -4.184881        -0.594860         1.659665
 C        -2.985999        -1.330588         1.333151
 C        -1.845829        -0.426672         1.895225
 H         0.929042         0.547316         0.250801
 H        -1.845882         1.589437        -0.578400
 H        -2.325656        -0.194231        -0.457040
 H        -0.918109         2.553936         1.160450
 H        -0.604814         1.740499         2.777577
 H        -4.050096         1.015269         2.899576
 H        -4.497241         1.528761         1.285588
 H        -3.133881        -2.222933         1.922330
 H        -2.883744        -1.628133         0.264697
 H        -1.627071        -0.718480         2.917572
