19
Iteration:  1170
 O         0.364228        -0.260015         0.337104
 C        -0.778057         0.407302         0.927641
 C        -2.053045         0.873798         0.128436
 C        -2.412351         0.920358         1.678746
 C        -1.050373         1.491863         2.075131
 C        -3.889529         0.817643         1.959458
 O        -4.247803        -0.415714         1.232315
 C        -3.017848        -1.420840         1.315135
 C        -1.804828        -0.509972         1.832571
 H         1.308595        -0.026593         0.642517
 H        -2.000313         1.771254        -0.479830
 H        -2.467376         0.031560        -0.494734
 H        -0.641252         2.453137         1.887807
 H        -0.708342         1.227296         3.241462
 H        -4.165581         0.895141         2.971843
 H        -4.369305         1.623869         1.397396
 H        -3.136154        -2.308620         2.019391
 H        -2.790807        -1.876731         0.353757
 H        -1.494572        -0.651210         2.928478
