19
Iteration:  2836
 O         0.455682        -0.227209         0.550360
 C        -0.805656         0.271899         0.908588
 C        -1.915252         0.825096         0.031878
 C        -2.478347         1.017498         1.456078
 C        -1.105554         1.578412         1.844035
 C        -3.914838         0.805417         1.770176
 O        -4.194216        -0.654351         1.839132
 C        -3.048718        -1.307557         1.370515
 C        -1.885817        -0.425099         1.691064
 H         1.004943         0.551858         0.020959
 H        -1.647445         1.669033        -0.636024
 H        -2.443700        -0.059499        -0.460005
 H        -0.781483         2.513793         1.392892
 H        -0.794663         1.547730         2.907932
 H        -4.344226         1.210674         2.688846
 H        -4.481171         1.179452         0.865636
 H        -2.969657        -2.372754         1.805848
 H        -3.146604        -1.372552         0.281534
 H        -1.397987        -0.672014         2.649681
