19
Iteration:  2764
 O         0.496809        -0.041954         0.481826
 C        -0.788335         0.354465         0.933146
 C        -1.914613         0.755657        -0.012767
 C        -2.490195         0.956334         1.496158
 C        -1.080053         1.468436         1.823815
 C        -3.880283         0.876259         1.866157
 O        -4.264655        -0.599934         1.716242
 C        -3.011801        -1.374004         1.336590
 C        -1.906184        -0.468153         1.746995
 H         0.722792        -0.983168         0.909849
 H        -1.907946         1.710301        -0.504885
 H        -2.339169        -0.015592        -0.695677
 H        -0.838933         2.428599         1.378694
 H        -0.674014         1.639488         2.897254
 H        -3.998978         1.155402         2.932029
 H        -4.637702         1.406866         1.288095
 H        -3.010118        -2.316744         1.853870
 H        -3.102625        -1.693158         0.246780
 H        -1.735697        -0.597121         2.846582
