19
Iteration:  4191charge 0 multiplicity 1
 O         0.236569        -0.280190         0.341065
 C        -0.876524         0.333696         0.985063
 C        -2.009131         0.763696         0.036504
 C        -2.471362         0.972587         1.597844
 C        -1.116417         1.780288         1.785212
 C        -3.869262         0.814733         1.852828
 O        -4.062186        -0.611405         1.400446
 C        -2.878323        -1.411312         1.604781
 C        -1.840438        -0.443407         1.890823
 H         0.917586        -0.113310         0.869026
 H        -1.779609         1.634130        -0.595004
 H        -2.426394        -0.071491        -0.565320
 H        -1.095220         2.737598         1.257023
 H        -0.549748         1.844976         2.701855
 H        -4.201111         1.103410         2.833193
 H        -4.549868         1.286852         1.184376
 H        -3.087720        -2.044008         2.435229
 H        -2.655861        -2.104198         0.757681
 H        -1.296682        -0.450581         2.813339
