19
Iteration:  3978charge 0 multiplicity 1
 O         0.525432        -0.160647         0.647257
 C        -0.785866         0.368973         0.867934
 C        -2.060363         0.651565        -0.137518
 C        -2.448965         0.871534         1.319412
 C        -1.204442         1.667504         1.759002
 C        -3.827628         0.847855         1.876206
 O        -4.136853        -0.568908         1.840044
 C        -3.030181        -1.372324         1.444598
 C        -1.902250        -0.447217         1.762774
 H         0.743500         0.044845        -0.384748
 H        -2.023637         1.635687        -0.796810
 H        -2.453352        -0.226003        -0.624309
 H        -1.037950         2.730081         1.475682
 H        -1.131528         1.594905         2.848328
 H        -3.913569         1.247455         2.919828
 H        -4.552944         1.404793         1.204962
 H        -2.841130        -2.228502         2.208964
 H        -3.141907        -1.778458         0.399871
 H        -1.409881        -0.523547         2.856969
