19
Iteration:  3895charge 0 multiplicity 1
 O         0.330032        -0.084850         0.359455
 C        -0.911559         0.252712         0.846064
 C        -1.974653         0.680944         0.027841
 C        -2.466632         0.923728         1.583146
 C        -1.182198         1.615834         1.792187
 C        -3.962143         0.865317         1.785123
 O        -4.052785        -0.507337         1.516111
 C        -2.905048        -1.373267         1.622388
 C        -1.727036        -0.462746         1.939822
 H         0.589564        -0.865934         0.752164
 H        -1.935572         1.588788        -0.560280
 H        -2.511242        -0.046500        -0.576467
 H        -1.036311         2.555819         1.276328
 H        -0.492075         1.521890         2.659492
 H        -4.462175         1.221674         2.741142
 H        -4.568787         1.377950         1.038593
 H        -3.019049        -2.118499         2.416456
 H        -2.885138        -2.058975         0.804075
 H        -1.228567        -0.438169         2.876679
