19
Iteration:  1181
 O         0.366684        -0.242052         0.346554
 C        -0.777287         0.303664         0.952866
 C        -2.083984         0.876683         0.113748
 C        -2.412157         0.877320         1.652440
 C        -1.104387         1.490850         2.088665
 C        -3.819936         0.826875         1.923261
 O        -4.156259        -0.412803         1.251142
 C        -2.970362        -1.339523         1.351658
 C        -1.868599        -0.502806         1.781416
 H         1.395391        -0.039494         0.735958
 H        -2.147253         1.869446        -0.314136
 H        -2.647834         0.089978        -0.476685
 H        -1.142951         2.516331         1.812300
 H        -0.610034         1.171428         3.173558
 H        -4.018227         0.724500         2.953208
 H        -4.425523         1.626557         1.497309
 H        -3.350646        -2.145805         2.063003
 H        -3.007236        -1.682978         0.329020
 H        -1.637262        -0.761107         2.878032
