19
Iteration:  4134
 O         0.527634         0.010588         0.549426
 C        -0.812030         0.339844         0.940357
 C        -2.039596         0.738566        -0.053663
 C        -2.443538         0.893527         1.438760
 C        -1.159586         1.607863         1.678703
 C        -3.869883         0.822784         1.888566
 O        -4.173410        -0.521329         1.648517
 C        -3.025291        -1.471392         1.564960
 C        -1.845731        -0.502501         1.757918
 H         0.457477        -1.002184         0.190486
 H        -1.940562         1.523689        -0.765667
 H        -2.723021        -0.102305        -0.416513
 H        -1.000316         2.460279         1.051047
 H        -0.848063         1.693309         2.701815
 H        -3.784266         1.160630         2.906939
 H        -4.558051         1.380190         1.288544
 H        -3.161069        -2.102643         2.427794
 H        -2.920323        -1.994356         0.636638
 H        -1.502004        -0.691635         2.829545
