19
Iteration:  4928
 O         0.369022        -0.196163         0.521635
 C        -0.824419         0.295711         0.955002
 C        -2.034534         0.688323         0.037905
 C        -2.446939         0.990233         1.487611
 C        -1.044054         1.639354         1.752561
 C        -3.901662         0.773202         1.824709
 O        -4.186350        -0.587122         1.658140
 C        -2.969796        -1.330073         1.326400
 C        -1.837886        -0.417705         1.893254
 H         0.915755         0.472482         0.295288
 H        -1.807408         1.618426        -0.588358
 H        -2.341409        -0.200629        -0.505935
 H        -0.942375         2.555992         1.174338
 H        -0.615861         1.719755         2.755850
 H        -4.026758         1.032480         2.873100
 H        -4.490006         1.549968         1.319685
 H        -3.113858        -2.244926         1.918106
 H        -2.876589        -1.616756         0.227763
 H        -1.583498        -0.742214         2.932272
