19
Iteration:   362
 O         0.479883        -0.055329         0.529698
 C        -0.844884         0.305455         0.938801
 C        -1.945986         0.843003        -0.042317
 C        -2.445620         0.965712         1.447213
 C        -1.014843         1.505170         1.958639
 C        -3.911131         0.889871         1.823283
 O        -4.207780        -0.552290         1.643540
 C        -3.062569        -1.425206         1.425359
 C        -1.867775        -0.539159         1.743041
 H         0.370351        -0.830857        -0.193539
 H        -1.846636         1.684193        -0.735994
 H        -2.619887         0.031881        -0.541908
 H        -0.640087         2.472277         1.536555
 H        -0.705160         1.285332         2.981852
 H        -3.989680         1.148279         2.824715
 H        -4.592850         1.452715         1.214541
 H        -3.235111        -2.291054         2.033866
 H        -3.051968        -1.810024         0.376809
 H        -1.591151        -0.664070         2.811458
