19
Iteration:  1689charge 0 multiplicity 1
 O         0.461649        -0.144258         0.524130
 C        -0.794583         0.244186         0.935964
 C        -1.936319         0.871715         0.004126
 C        -2.436964         1.021193         1.477615
 C        -1.024630         1.477198         1.935654
 C        -3.897111         0.729167         1.991650
 O        -4.216307        -0.459326         1.509097
 C        -3.089038        -1.430386         1.334632
 C        -1.924408        -0.486116         1.737263
 H         0.752571         0.278538        -0.180828
 H        -1.640861         1.870118        -0.337952
 H        -2.470241         0.178454        -0.650651
 H        -0.939835         2.595419         1.455558
 H        -0.711026         1.305897         3.002009
 H        -3.912845         0.788973         3.108376
 H        -4.623578         1.450089         1.630984
 H        -3.170075        -2.226599         1.969259
 H        -2.933563        -1.716954         0.255543
 H        -1.705864        -0.704569         2.814191
