19
Iteration:   146charge 0 multiplicity 1
 O         0.427882        -0.188593         0.461176
 C        -0.801670         0.346401         0.918026
 C        -1.874975         0.805449        -0.038278
 C        -2.483674         0.966219         1.382659
 C        -1.148631         1.555103         1.863873
 C        -3.948723         0.887456         1.837922
 O        -4.182585        -0.632510         1.714950
 C        -3.007668        -1.326346         1.426994
 C        -1.838352        -0.431908         1.822765
 H         0.583647        -1.027102         0.877225
 H        -1.602287         1.730066        -0.644792
 H        -2.251819         0.008360        -0.811051
 H        -0.902909         2.570859         1.493872
 H        -0.783171         1.279119         2.842472
 H        -4.056739         1.145282         2.852804
 H        -4.758275         1.384604         1.286721
 H        -3.001228        -2.277579         2.065113
 H        -2.937554        -1.490454         0.349830
 H        -1.636650        -0.524501         2.904304
