19
Iteration:  2275charge 0 multiplicity 1
 O         0.531964        -0.031036         0.440842
 C        -0.759953         0.342088         0.883395
 C        -1.873531         0.786032        -0.071652
 C        -2.470325         0.895427         1.548755
 C        -0.977311         1.421734         1.983292
 C        -3.887037         0.779485         2.040838
 O        -4.385644        -0.517729         1.568729
 C        -3.139226        -1.280014         1.273858
 C        -1.935547        -0.502697         1.678381
 H         1.214792        -0.043472         1.140005
 H        -1.565953         1.652490        -0.704012
 H        -2.266029        -0.077873        -0.592179
 H        -0.813467         2.495110         1.715345
 H        -0.776129         1.046929         3.075393
 H        -3.948422         0.896449         3.157704
 H        -4.614594         1.536394         1.631748
 H        -3.107151        -2.209940         1.951364
 H        -3.048235        -1.792293         0.279543
 H        -1.574743        -0.734472         2.740821
