19
Iteration:  1321
 O         0.393125        -0.189057         0.498756
 C        -0.796760         0.281639         0.919216
 C        -1.859019         1.112098         0.007304
 C        -2.407304         0.916639         1.455477
 C        -1.076716         1.421083         2.114538
 C        -3.890221         0.798186         1.747148
 O        -4.174531        -0.622634         1.859604
 C        -3.141630        -1.339093         1.167221
 C        -1.877010        -0.532180         1.575609
 H         0.933760        -0.005461         1.172756
 H        -1.416996         2.020340        -0.303883
 H        -2.315315         0.483292        -0.790331
 H        -0.829763         2.436592         1.793030
 H        -0.859185         1.199525         3.117612
 H        -4.070844         1.261599         2.792009
 H        -4.597379         1.284207         0.997981
 H        -3.313972        -2.418946         1.489633
 H        -3.273679        -1.218563         0.105828
 H        -1.835506        -0.677403         2.659471
