19
Iteration:  3004charge 0 multiplicity 1
 O         0.332674        -0.212650         0.497051
 C        -0.828027         0.320248         0.829513
 C        -2.024501         0.732618         0.027407
 C        -2.421085         0.894376         1.489765
 C        -1.122005         1.636812         1.835082
 C        -3.862289         0.742883         1.847843
 O        -4.197867        -0.510162         1.467059
 C        -2.915565        -1.354575         1.614423
 C        -1.791956        -0.430593         1.792670
 H         1.131265         0.348724         0.471750
 H        -2.069211         1.716495        -0.601781
 H        -2.463406        -0.106841        -0.474654
 H        -1.212592         2.562355         1.204693
 H        -0.801937         1.844948         2.850082
 H        -3.888654         0.846634         2.973068
 H        -4.461459         1.523662         1.395321
 H        -3.067668        -1.928847         2.546924
 H        -2.963137        -2.038887         0.707275
 H        -1.443907        -0.424426         2.855022
