19
Iteration:   177charge 0 multiplicity 1
 O         0.527770        -0.054361         0.595273
 C        -0.789733         0.313610         0.866806
 C        -1.979583         0.763284        -0.043342
 C        -2.453915         0.872749         1.428540
 C        -1.143363         1.591408         1.747229
 C        -3.813149         0.905021         1.989773
 O        -4.251721        -0.502263         1.647343
 C        -3.092196        -1.446761         1.387198
 C        -1.880098        -0.554041         1.684194
 H         0.799048        -0.687241         1.343703
 H        -1.819713         1.635674        -0.580882
 H        -2.405203        -0.055393        -0.690673
 H        -0.953657         2.614707         1.272638
 H        -0.683034         1.598793         2.702958
 H        -3.780287         1.029718         3.070148
 H        -4.551732         1.554346         1.526721
 H        -3.094854        -2.263449         2.167472
 H        -3.264807        -1.949727         0.460009
 H        -1.504811        -0.621677         2.718849
