19
Iteration:  2025charge 0 multiplicity 1
 O         0.325137        -0.136773         0.318022
 C        -0.822575         0.291639         0.949242
 C        -1.967203         0.815963         0.101251
 C        -2.423469         0.931531         1.638507
 C        -1.059122         1.487323         1.993810
 C        -3.879024         0.767018         1.925846
 O        -4.166086        -0.487833         1.356497
 C        -2.988173        -1.288429         1.340126
 C        -1.828015        -0.443094         1.820539
 H         0.580418        -0.947294         0.985799
 H        -1.919984         1.891565        -0.253736
 H        -2.484266         0.080885        -0.442531
 H        -0.816814         2.566927         1.707989
 H        -0.665444         1.229044         2.995956
 H        -4.356908         0.929272         2.869800
 H        -4.433904         1.411104         1.200577
 H        -2.940661        -2.061829         2.177446
 H        -3.060412        -1.860733         0.464904
 H        -1.501904        -0.694459         2.854769
