19
Iteration:  2431charge 0 multiplicity 1
 O         0.508926         0.047697         0.510106
 C        -0.796781         0.311592         0.895288
 C        -1.903659         0.835049         0.071830
 C        -2.474068         0.860048         1.453717
 C        -1.030194         1.394805         1.885038
 C        -3.826797         0.818061         1.979777
 O        -4.253930        -0.487404         1.578193
 C        -3.093099        -1.373005         1.280263
 C        -2.010702        -0.526253         1.764544
 H         0.630832        -1.020406         0.418509
 H        -1.616014         1.796996        -0.234620
 H        -2.264574         0.175009        -0.729115
 H        -0.834564         2.495363         1.429610
 H        -0.759567         1.365136         2.927940
 H        -3.811378         0.786015         3.078267
 H        -4.574733         1.546118         1.588239
 H        -3.132391        -2.398600         1.769470
 H        -3.091293        -1.475843         0.161301
 H        -1.670603        -0.780714         2.812823
