19
Iteration:   549
 O         0.351589        -0.261167         0.364878
 C        -0.823725         0.318595         0.907477
 C        -2.006355         0.924534         0.111207
 C        -2.417278         0.925189         1.608625
 C        -1.042335         1.548026         1.944735
 C        -3.916785         0.731550         1.930327
 O        -4.197215        -0.500484         1.316255
 C        -2.934819        -1.319522         1.411734
 C        -1.856112        -0.432488         1.836534
 H         0.787945        -0.568291         1.234952
 H        -1.814701         1.910343        -0.306425
 H        -2.520991         0.248721        -0.563503
 H        -0.727224         2.442180         1.571336
 H        -0.793351         1.203073         2.962685
 H        -4.105608         0.773095         3.013670
 H        -4.432480         1.517476         1.404624
 H        -3.129747        -2.160861         2.117207
 H        -2.967898        -1.742322         0.373433
 H        -1.466156        -0.499542         2.870628
