19
Iteration:   578
 O         0.298089        -0.276829         0.349772
 C        -0.847632         0.281866         0.999048
 C        -1.892986         0.887611         0.108534
 C        -2.442834         1.040380         1.552891
 C        -1.044707         1.560858         1.967188
 C        -3.894829         0.720430         2.016364
 O        -4.170430        -0.489785         1.273876
 C        -2.978589        -1.399637         1.393514
 C        -1.901082        -0.428446         1.810930
 H         1.192056         0.237416         0.705279
 H        -1.612535         1.763623        -0.498576
 H        -2.465527         0.110112        -0.531453
 H        -0.497860         2.507372         1.421737
 H        -0.826760         1.489500         3.034530
 H        -3.979645         0.648976         3.175725
 H        -4.690635         1.453680         1.710795
 H        -3.149564        -2.182065         2.110164
 H        -3.003971        -1.876137         0.437116
 H        -1.649149        -0.558712         2.859977
