19
Iteration:   729
 O         0.608278        -0.124266         0.473953
 C        -0.746856         0.276250         0.940829
 C        -1.962680         0.986180         0.024987
 C        -2.427535         0.947739         1.473044
 C        -1.067584         1.489736         2.027893
 C        -3.921922         0.855953         1.821302
 O        -4.253792        -0.585819         1.775739
 C        -3.133371        -1.364624         1.181492
 C        -1.933708        -0.556327         1.694455
 H         0.461256        -1.084245         0.504878
 H        -1.628841         1.939971        -0.236714
 H        -2.689795         0.401577        -0.597695
 H        -0.723208         2.493238         1.673130
 H        -0.758887         1.171642         2.995646
 H        -4.152336         1.228896         2.800893
 H        -4.440727         1.396215         0.975017
 H        -3.247512        -2.359060         1.691598
 H        -3.112386        -1.442115         0.052707
 H        -1.715715        -0.714131         2.784595
