19
Iteration:  3928
 O         0.553717        -0.094957         0.481871
 C        -0.771200         0.345602         0.853422
 C        -1.968289         0.691483        -0.023596
 C        -2.531609         0.972027         1.440046
 C        -1.081689         1.646022         1.680454
 C        -3.949785         0.761925         1.928012
 O        -4.238721        -0.604609         1.610768
 C        -3.031925        -1.393637         1.550493
 C        -1.830813        -0.376238         1.899824
 H         0.478265        -1.022191         0.220077
 H        -2.032087         1.559674        -0.638062
 H        -2.515277        -0.163712        -0.475358
 H        -0.907278         2.586770         1.161733
 H        -0.535828         1.644888         2.657507
 H        -3.813489         0.899588         3.035474
 H        -4.780715         1.270524         1.456865
 H        -3.132474        -2.140531         2.308680
 H        -2.930241        -1.734553         0.540012
 H        -1.549962        -0.181775         2.908073
