19
Iteration:  1420
 O         0.391198        -0.209682         0.392168
 C        -0.787009         0.373664         0.939576
 C        -1.968716         0.887453         0.022454
 C        -2.446227         0.881309         1.552593
 C        -1.081942         1.497712         2.112143
 C        -3.801391         0.851957         2.022573
 O        -4.243307        -0.519150         1.369227
 C        -3.040735        -1.346777         1.283585
 C        -1.819852        -0.486326         1.707217
 H         0.765901        -0.612658         1.110591
 H        -2.012382         1.809530        -0.520640
 H        -2.558413         0.184571        -0.581356
 H        -0.933041         2.636154         1.906852
 H        -0.727298         1.173407         3.140922
 H        -4.055082         0.704935         3.096122
 H        -4.251992         1.762788         1.547135
 H        -3.192433        -2.247546         2.007165
 H        -3.041926        -1.671394         0.266507
 H        -1.674734        -0.697262         2.747967
