19
Iteration:  3284charge 0 multiplicity 1
 O         0.362939        -0.182924         0.484837
 C        -0.900724         0.292456         0.885053
 C        -2.048941         0.852220         0.023204
 C        -2.460388         0.984704         1.589176
 C        -0.908485         1.555779         1.731267
 C        -3.979353         0.784524         1.764302
 O        -4.144050        -0.655039         1.491016
 C        -2.925461        -1.349775         1.674060
 C        -1.825082        -0.333969         1.878635
 H         0.347758        -0.632629        -0.463792
 H        -2.008455         1.812318        -0.470846
 H        -2.594944         0.077227        -0.535159
 H        -0.884254         2.570885         1.275467
 H        -0.412231         1.625139         2.739123
 H        -4.395851         0.932182         2.748342
 H        -4.632149         1.309086         1.033699
 H        -2.845885        -2.136519         2.446956
 H        -2.674162        -1.945945         0.770037
 H        -1.486065        -0.349637         2.898677
