19
Iteration:  3210
 O         0.543280        -0.166249         0.628453
 C        -0.810222         0.310316         0.825362
 C        -2.097079         0.722193        -0.058384
 C        -2.479397         0.947301         1.441023
 C        -1.037396         1.561584         1.664839
 C        -3.919316         0.846308         1.947039
 O        -4.293211        -0.576613         1.662643
 C        -2.986758        -1.392573         1.484336
 C        -1.816466        -0.391815         1.769086
 H         1.130982         0.520927         0.394621
 H        -2.030473         1.611986        -0.680871
 H        -2.503997        -0.122373        -0.463208
 H        -0.795918         2.485143         1.088768
 H        -0.598795         1.623831         2.667828
 H        -3.945026         1.050233         3.042599
 H        -4.676923         1.441311         1.397816
 H        -3.100511        -2.145629         2.324052
 H        -2.950015        -1.905467         0.536379
 H        -1.440368        -0.631247         2.759668
