19
Iteration:  4736
 O         0.477392        -0.013463         0.340279
 C        -0.733246         0.371651         0.870110
 C        -2.001919         0.661043         0.046148
 C        -2.414043         0.726894         1.595593
 C        -1.153926         1.587818         1.810102
 C        -3.844731         0.853937         1.860207
 O        -4.283352        -0.466563         1.471254
 C        -3.113920        -1.351389         1.556325
 C        -1.765764        -0.521081         1.879708
 H         1.143258        -0.280592         1.119288
 H        -2.014959         1.566419        -0.453664
 H        -2.357820        -0.204015        -0.567725
 H        -1.184981         2.563099         1.310674
 H        -0.603949         1.611155         2.787260
 H        -4.276536         1.104712         2.874099
 H        -4.260113         1.466250         1.058343
 H        -3.224446        -2.005448         2.433401
 H        -3.175581        -2.034759         0.751422
 H        -1.485579        -0.759927         2.873840
