19
Iteration:  2325charge 0 multiplicity 1
 O         0.344902        -0.211809         0.371689
 C        -0.824972         0.268937         0.885782
 C        -1.958167         0.905362         0.132292
 C        -2.439283         0.924693         1.649940
 C        -1.044485         1.554324         1.986777
 C        -3.913328         0.820987         1.936634
 O        -4.209754        -0.479024         1.314089
 C        -3.009053        -1.406574         1.369885
 C        -1.801225        -0.515116         1.816592
 H         1.124677         0.092982         0.862831
 H        -1.886637         1.972101        -0.262029
 H        -2.578325         0.300113        -0.512322
 H        -0.808721         2.474446         1.520869
 H        -0.565669         1.311430         2.938240
 H        -4.141656         0.803045         3.023147
 H        -4.640480         1.512936         1.538059
 H        -3.186913        -2.241746         2.008025
 H        -2.855331        -1.810161         0.366141
 H        -1.408148        -0.708154         2.797016
