19
Iteration:   107
 O         0.360444        -0.293737         0.416570
 C        -0.802121         0.313717         0.912096
 C        -1.949829         0.882343         0.069288
 C        -2.475513         1.001238         1.537954
 C        -1.053695         1.616646         1.793734
 C        -3.974580         0.837725         1.612777
 O        -4.159414        -0.666877         1.799466
 C        -2.972785        -1.309463         1.395665
 C        -1.819917        -0.453360         1.868328
 H         0.850087        -0.635614         1.358132
 H        -1.931513         1.940485        -0.299352
 H        -2.460447         0.353174        -0.664962
 H        -0.770596         2.597939         1.503470
 H        -0.583187         1.453728         2.843876
 H        -4.468984         1.316078         2.581466
 H        -4.476228         1.097458         0.673728
 H        -3.064101        -2.327680         1.688346
 H        -2.949224        -1.317084         0.270905
 H        -1.448524        -0.495730         2.914771
