19
Iteration:   940charge 0 multiplicity 1
 O         0.459589        -0.202576         0.482574
 C        -0.768991         0.280368         0.957810
 C        -1.959361         0.917299        -0.001973
 C        -2.407491         0.943471         1.493242
 C        -1.054967         1.483180         1.923659
 C        -3.868387         0.826291         1.997002
 O        -4.290227        -0.557792         1.554540
 C        -3.049315        -1.311303         1.203967
 C        -1.940162        -0.518273         1.757894
 H         1.152333         0.213443         1.127603
 H        -1.603363         1.918936        -0.426463
 H        -2.431991         0.260643        -0.725347
 H        -0.882166         2.515590         1.645619
 H        -0.744894         1.333009         2.968585
 H        -3.714737         0.895971         3.149683
 H        -4.538300         1.624975         1.605915
 H        -3.205151        -2.244547         1.779253
 H        -3.102769        -1.684814         0.094161
 H        -1.726214        -0.837752         2.802274
