19
Iteration:  2851
 O         0.475846        -0.218459         0.514047
 C        -0.743714         0.379744         0.894938
 C        -1.912467         0.789199        -0.072181
 C        -2.434208         0.858732         1.457713
 C        -1.094730         1.597421         1.804333
 C        -3.978801         0.857518         1.809720
 O        -4.267270        -0.608915         1.867126
 C        -3.039003        -1.361964         1.292068
 C        -1.826549        -0.488692         1.821619
 H         1.111529         0.520758         0.575451
 H        -1.868789         1.808385        -0.432239
 H        -2.301090         0.199394        -0.904629
 H        -1.016072         2.622101         1.422050
 H        -0.786494         1.538067         2.919772
 H        -4.156869         1.365858         2.772818
 H        -4.617852         1.371333         1.081068
 H        -3.081377        -2.298448         1.796506
 H        -3.139579        -1.671488         0.235089
 H        -1.791916        -0.527085         2.947552
