19
Iteration:  3536
 O         0.404775        -0.192538         0.602900
 C        -0.830649         0.376878         0.817025
 C        -2.028297         0.819582        -0.038728
 C        -2.454031         0.851890         1.516600
 C        -1.106438         1.556104         1.758903
 C        -3.822757         0.813981         1.908196
 O        -4.237080        -0.546727         1.611930
 C        -2.978739        -1.388213         1.500658
 C        -1.820845        -0.482326         1.752954
 H         1.071750         0.480292         0.132456
 H        -2.165423         1.908743        -0.523057
 H        -2.465714         0.103048        -0.677631
 H        -0.964696         2.537408         1.246399
 H        -0.733884         1.585073         2.766875
 H        -3.875348         1.102517         3.001078
 H        -4.345059         1.571458         1.292265
 H        -3.123673        -2.201876         2.194856
 H        -2.895602        -1.823023         0.457198
 H        -1.355579        -0.731663         2.692053
