19
Iteration:  2660charge 0 multiplicity 1
 O         0.373527        -0.211039         0.397927
 C        -0.829848         0.362157         0.924714
 C        -2.010092         0.902125         0.058776
 C        -2.471493         0.936965         1.620840
 C        -1.004021         1.632488         1.937472
 C        -3.933757         0.789761         1.843869
 O        -4.218985        -0.583676         1.399229
 C        -2.931428        -1.387594         1.410206
 C        -1.784511        -0.451106         1.911806
 H         0.234023        -1.089485         0.356747
 H        -1.964723         1.723006        -0.668438
 H        -2.485825         0.064789        -0.347953
 H        -0.708772         2.564207         1.443242
 H        -0.719730         1.526441         2.885880
 H        -4.161354         0.804347         2.898933
 H        -4.499947         1.551684         1.280994
 H        -3.134301        -2.119828         2.214001
 H        -2.825417        -1.757888         0.419276
 H        -1.291236        -0.678035         2.866116
