19
Iteration:  2855
 O         0.482607        -0.209952         0.509356
 C        -0.749024         0.413434         0.897348
 C        -1.921644         0.778273        -0.099691
 C        -2.448301         0.864643         1.440456
 C        -1.109816         1.583100         1.815564
 C        -3.982559         0.845763         1.796640
 O        -4.253180        -0.571855         1.863408
 C        -3.028944        -1.375648         1.316066
 C        -1.846643        -0.541242         1.841020
 H         1.237254         0.513869         0.681064
 H        -1.820623         1.891688        -0.333767
 H        -2.252552         0.205336        -0.938419
 H        -0.983538         2.641602         1.387260
 H        -0.730076         1.571062         2.772802
 H        -4.044991         1.246389         2.849096
 H        -4.666405         1.437138         1.169515
 H        -3.148726        -2.354104         1.825989
 H        -3.118089        -1.607127         0.235309
 H        -1.767035        -0.581991         2.907696
