19
Iteration:  4108charge 0 multiplicity 1
 O         0.542137        -0.045987         0.685969
 C        -0.792382         0.337273         0.794595
 C        -1.943511         0.604759        -0.151229
 C        -2.461245         0.862051         1.451109
 C        -1.163227         1.592929         1.609246
 C        -3.932568         0.833301         1.984483
 O        -4.269981        -0.576752         1.801944
 C        -3.052123        -1.359031         1.426272
 C        -1.797502        -0.389473         1.799696
 H         0.847718        -0.111301        -0.248866
 H        -1.920619         1.545621        -0.790615
 H        -2.491522        -0.138542        -0.663277
 H        -0.909300         2.578009         1.132506
 H        -0.879537         1.407943         2.666248
 H        -3.808992         1.074236         3.041094
 H        -4.667306         1.493931         1.444208
 H        -3.161954        -2.278390         2.043741
 H        -2.898459        -1.570842         0.383866
 H        -1.420240        -0.530855         2.830771
