19
Iteration:  2711charge 0 multiplicity 1
 O         0.444093        -0.196331         0.521204
 C        -0.760658         0.359844         0.899071
 C        -1.968073         0.774009         0.033763
 C        -2.477752         0.907933         1.504088
 C        -1.011869         1.605692         1.852871
 C        -3.899005         0.712337         1.929796
 O        -4.255821        -0.557115         1.485120
 C        -3.078226        -1.311508         1.467730
 C        -1.840533        -0.448131         1.744047
 H         0.928340         0.599280         0.053279
 H        -1.706386         1.737472        -0.520580
 H        -2.525110         0.060012        -0.641684
 H        -0.806422         2.670357         1.508671
 H        -0.773463         1.298502         2.923359
 H        -3.958120         0.759671         3.058231
 H        -4.616577         1.447721         1.538809
 H        -3.117205        -2.149978         2.180078
 H        -3.084047        -1.785689         0.416832
 H        -1.588078        -0.503226         2.804221
