19
Iteration:   696charge 0 multiplicity 1
 O         0.451252        -0.161777         0.661098
 C        -0.838235         0.349722         0.921553
 C        -1.913880         0.970292        -0.050491
 C        -2.434888         0.918988         1.487673
 C        -0.982598         1.437469         1.948952
 C        -3.935059         0.832799         1.854794
 O        -4.210400        -0.591811         1.804473
 C        -3.055477        -1.333872         1.128521
 C        -1.900095        -0.510899         1.688157
 H         0.247382        -0.892029        -0.158272
 H        -1.697350         1.926053        -0.459825
 H        -2.531556         0.496106        -0.873111
 H        -0.680401         2.489237         1.853140
 H        -0.533434         1.146851         2.854897
 H        -4.204464         1.311278         2.782304
 H        -4.537836         1.402435         1.074409
 H        -2.974202        -2.389965         1.552256
 H        -3.216858        -1.443180         0.016991
 H        -1.665573        -0.676911         2.777163
