19
Iteration:  3763
 O         0.525234        -0.136814         0.429948
 C        -0.853317         0.320556         0.964353
 C        -1.887898         0.871110        -0.057276
 C        -2.477801         0.919061         1.330906
 C        -1.188878         1.616202         1.894144
 C        -3.908782         0.809851         1.696765
 O        -4.126841        -0.599339         1.965823
 C        -3.071940        -1.391160         1.438103
 C        -1.854685        -0.451409         1.763497
 H         0.272515        -0.976296        -0.230783
 H        -1.629154         1.776781        -0.704521
 H        -2.136834         0.057210        -0.661228
 H        -1.000637         2.718186         1.812805
 H        -1.099439         1.295027         2.953016
 H        -4.098066         1.311890         2.655742
 H        -4.590792         1.143503         0.929263
 H        -3.146794        -2.305726         2.015310
 H        -3.116660        -1.652627         0.348649
 H        -1.567691        -0.628852         2.797968
