19
Iteration:  4718charge 0 multiplicity 1
 O         0.570966         0.013141         0.364138
 C        -0.768481         0.313169         0.886737
 C        -2.036746         0.548318         0.033038
 C        -2.470675         0.921773         1.542378
 C        -1.125679         1.583714         1.779182
 C        -3.903651         0.886899         1.935705
 O        -4.213059        -0.449108         1.468504
 C        -3.046223        -1.399343         1.527670
 C        -1.848330        -0.547161         1.862827
 H         0.902867        -0.620729         1.111870
 H        -2.092247         1.447903        -0.689540
 H        -2.573783        -0.342060        -0.386607
 H        -0.981103         2.582684         1.365202
 H        -0.948275         1.612733         2.849764
 H        -3.917218         0.938431         3.037913
 H        -4.632930         1.616947         1.610751
 H        -3.339391        -2.214644         2.209375
 H        -2.992736        -1.779537         0.452653
 H        -1.414617        -0.657976         2.894101
