19
Iteration:  3030
 O         0.545389        -0.116079         0.494318
 C        -0.836082         0.246139         0.867678
 C        -2.056866         0.686410        -0.013273
 C        -2.511505         0.964160         1.426664
 C        -0.984536         1.567225         1.720392
 C        -3.978079         0.845527         1.965930
 O        -4.153355        -0.560846         1.551621
 C        -3.018217        -1.375468         1.529457
 C        -1.905166        -0.437421         1.854916
 H         1.075912         0.636586         0.525980
 H        -2.018703         1.572557        -0.561094
 H        -2.430516        -0.092727        -0.705513
 H        -0.830929         2.665657         1.303276
 H        -0.740447         1.560222         2.815279
 H        -4.040751         1.110574         3.029403
 H        -4.777942         1.386722         1.423918
 H        -3.078825        -2.121824         2.330302
 H        -3.071081        -1.966171         0.603914
 H        -1.537466        -0.597574         2.875461
