19
Iteration:  3456charge 0 multiplicity 1
 O         0.500570        -0.135534         0.461771
 C        -0.757401         0.304239         0.815746
 C        -2.005233         0.827717        -0.002101
 C        -2.451755         0.929981         1.522172
 C        -1.108407         1.568847         1.874884
 C        -3.966827         0.906148         1.692484
 O        -4.117300        -0.599586         1.926074
 C        -3.045844        -1.432013         1.386483
 C        -1.871853        -0.451373         1.652921
 H         0.765100        -0.762631         1.291967
 H        -1.994200         1.759198        -0.645156
 H        -2.509031        -0.066053        -0.575420
 H        -1.144390         2.569200         1.435461
 H        -0.749066         1.541988         2.932988
 H        -4.340124         1.489011         2.566827
 H        -4.354302         1.320012         0.771980
 H        -2.969949        -2.200383         2.147023
 H        -3.331908        -1.860224         0.391324
 H        -1.674379        -0.582869         2.772491
