19
Iteration:  1763
 O         0.286769        -0.246048         0.390559
 C        -0.917498         0.295721         0.982450
 C        -1.941418         0.936825         0.114051
 C        -2.418064         0.893945         1.579210
 C        -0.954026         1.531484         1.953059
 C        -3.920122         0.778014         1.926177
 O        -4.209003        -0.499889         1.304244
 C        -2.969825        -1.442865         1.402256
 C        -1.840313        -0.407872         1.901115
 H         0.637646         0.544045         0.002664
 H        -1.652492         1.794435        -0.518282
 H        -2.425235         0.184217        -0.563634
 H        -0.634041         2.461493         1.551245
 H        -0.404813         1.386313         2.935986
 H        -4.035276         0.743950         3.016614
 H        -4.567002         1.564543         1.474854
 H        -2.977515        -2.404554         2.032412
 H        -2.817183        -1.654118         0.306585
 H        -1.508956        -0.427571         2.940047
