19
Iteration:  4548charge 0 multiplicity 1
 O         0.566995        -0.020793         0.524336
 C        -0.821025         0.269516         0.890997
 C        -1.830174         0.704051        -0.121134
 C        -2.496561         1.004528         1.297048
 C        -1.111748         1.524931         1.710579
 C        -3.877656         0.818584         1.964443
 O        -4.282229        -0.591204         1.846807
 C        -3.135757        -1.433944         1.437934
 C        -1.937051        -0.431312         1.738203
 H         1.098602         0.130387         1.363691
 H        -1.831839         1.650440        -0.661245
 H        -2.292995        -0.071706        -0.651607
 H        -0.691058         2.406209         1.139524
 H        -0.853733         1.632520         2.797580
 H        -3.767959         0.957910         3.037065
 H        -4.661521         1.432529         1.535066
 H        -3.122122        -2.429009         1.982528
 H        -3.037321        -1.642780         0.365272
 H        -1.547118        -0.463860         2.738900
