19
Iteration:  2271
 O         0.520086        -0.012741         0.435351
 C        -0.732278         0.298933         0.907077
 C        -1.860264         0.773700        -0.050398
 C        -2.446915         0.912769         1.532528
 C        -1.040903         1.436888         1.958788
 C        -3.878785         0.750304         2.052786
 O        -4.367799        -0.500708         1.591722
 C        -3.167801        -1.296517         1.260400
 C        -1.930054        -0.482990         1.679349
 H         1.225388        -0.185408         1.109019
 H        -1.634134         1.765690        -0.627283
 H        -2.235880        -0.044259        -0.690035
 H        -0.635679         2.424002         1.716910
 H        -0.790269         1.061655         3.110231
 H        -3.973858         0.936927         3.151852
 H        -4.564779         1.376093         1.484337
 H        -3.117381        -2.172856         1.874359
 H        -3.040946        -1.698697         0.245907
 H        -1.659450        -0.670911         2.698958
