19
Iteration:  1050charge 0 multiplicity 1
 O         0.510778        -0.174825         0.624525
 C        -0.795657         0.343058         0.883101
 C        -1.929156         0.924270         0.024530
 C        -2.450571         0.956378         1.546724
 C        -0.993606         1.430771         2.001418
 C        -3.957930         0.919811         1.896586
 O        -4.219103        -0.622213         1.705396
 C        -3.053626        -1.363317         1.134332
 C        -1.945077        -0.469213         1.631670
 H         0.409187        -0.525429        -0.192285
 H        -1.724308         1.951333        -0.378051
 H        -2.408324         0.263055        -0.707623
 H        -0.663796         2.369206         1.651975
 H        -0.472153         1.095516         2.987381
 H        -4.246639         1.091368         3.006721
 H        -4.644120         1.441089         1.184512
 H        -3.156041        -2.277122         1.684146
 H        -3.202730        -1.475312         0.016207
 H        -1.712903        -0.794752         2.661437
