19
Iteration:  2584
 O         0.557740        -0.105304         0.622012
 C        -0.716589         0.345171         0.889735
 C        -1.992512         0.824521        -0.002135
 C        -2.463320         0.908908         1.449083
 C        -1.047049         1.502643         1.882629
 C        -3.889957         0.804919         1.972007
 O        -4.269805        -0.554221         1.615918
 C        -3.164130        -1.339135         1.385239
 C        -1.856242        -0.534485         1.632236
 H         0.951040        -0.025391        -0.384774
 H        -1.745122         1.628029        -0.621622
 H        -2.509445         0.211702        -0.655797
 H        -0.999079         2.613494         1.621827
 H        -0.710088         1.380559         2.873444
 H        -3.996588         0.908274         3.056843
 H        -4.679846         1.390412         1.463878
 H        -3.205324        -2.352984         1.899853
 H        -3.176453        -1.427137         0.324955
 H        -1.641797        -0.639427         2.718416
