19
Iteration:  3707
 O         0.506575        -0.112935         0.496589
 C        -0.830349         0.278704         0.915895
 C        -1.908143         0.849038        -0.066420
 C        -2.487335         0.946628         1.413163
 C        -1.054348         1.533775         1.754773
 C        -3.968348         0.820609         1.815668
 O        -4.157333        -0.648434         1.997145
 C        -3.068264        -1.349278         1.269025
 C        -1.934700        -0.438838         1.737652
 H         1.084233        -0.148983         1.370469
 H        -1.736155         1.796008        -0.664893
 H        -2.349215         0.069210        -0.657193
 H        -0.607193         2.421775         1.197892
 H        -0.829949         1.503055         2.829095
 H        -4.239635         1.317853         2.777951
 H        -4.671856         1.189651         1.085070
 H        -3.089187        -2.375499         1.741496
 H        -3.207100        -1.473431         0.152712
 H        -1.589752        -0.521905         2.801450
