19
Iteration:  2900
 O         0.540587         0.008810         0.494877
 C        -0.785638         0.353156         0.893070
 C        -1.933110         0.728722        -0.081756
 C        -2.492259         0.923779         1.395418
 C        -1.033581         1.527691         1.812214
 C        -3.928184         0.817709         1.919324
 O        -4.265311        -0.538741         1.679069
 C        -3.064507        -1.424961         1.478423
 C        -1.926263        -0.459451         1.770202
 H         0.800561        -0.801049         1.100892
 H        -1.901639         1.501769        -0.866963
 H        -2.350286        -0.234987        -0.502038
 H        -0.732495         2.531719         1.488090
 H        -0.684306         1.317672         2.799222
 H        -3.826244         1.176685         2.968176
 H        -4.717142         1.426767         1.422739
 H        -3.201851        -2.376591         2.031100
 H        -3.053597        -1.730070         0.426042
 H        -1.442666        -0.634582         2.706344
