19
Iteration:   808charge 0 multiplicity 1
 O         0.455577        -0.192534         0.528249
 C        -0.844598         0.281391         0.872286
 C        -2.000552         0.872344         0.016598
 C        -2.347505         0.942867         1.576230
 C        -1.011742         1.568362         2.002768
 C        -3.960463         0.810169         2.028695
 O        -4.274797        -0.509288         1.431606
 C        -3.018495        -1.303949         1.283576
 C        -1.779924        -0.507275         1.693419
 H         0.421373        -1.026923         0.752365
 H        -2.040030         1.851717        -0.514854
 H        -2.406408         0.206529        -0.732559
 H        -0.951877         2.629918         1.597136
 H        -0.812351         1.392746         3.021753
 H        -4.066397         0.844905         3.091582
 H        -4.700362         1.561622         1.621966
 H        -2.999724        -2.218414         1.864375
 H        -3.039386        -1.731408         0.229303
 H        -1.400899        -0.955485         2.624827
