19
Iteration:  3414
 O         0.416743        -0.186744         0.442078
 C        -0.823264         0.295700         0.976979
 C        -1.788814         0.836655        -0.009380
 C        -2.512535         0.973559         1.398305
 C        -1.098723         1.636028         1.779382
 C        -3.970903         0.835453         1.750154
 O        -4.152036        -0.683602         1.917691
 C        -2.981074        -1.380519         1.413239
 C        -1.939369        -0.362312         1.809411
 H         0.158903        -0.926194        -0.191557
 H        -1.358348         1.847229        -0.391938
 H        -2.323349         0.309964        -0.887910
 H        -0.802469         2.597145         1.300395
 H        -0.706958         1.544509         2.812185
 H        -4.363462         1.213493         2.753824
 H        -4.676023         1.065728         0.918824
 H        -2.812653        -2.323078         1.960602
 H        -2.873001        -1.581581         0.290144
 H        -1.766757        -0.550501         2.879295
