19
Iteration:  4543charge 0 multiplicity 1
 O         0.546876        -0.051780         0.520185
 C        -0.781110         0.276675         0.893776
 C        -1.854505         0.696785        -0.108723
 C        -2.481340         0.962326         1.331355
 C        -1.102287         1.562270         1.719057
 C        -3.918704         0.824152         1.957752
 O        -4.283570        -0.627459         1.832539
 C        -3.104234        -1.398326         1.434486
 C        -1.931500        -0.398615         1.716438
 H         1.089586         0.048530         1.291417
 H        -1.746899         1.634427        -0.685008
 H        -2.285994        -0.217607        -0.646916
 H        -0.804318         2.454129         1.180935
 H        -0.697703         1.592431         2.735556
 H        -3.775374         0.986290         3.060361
 H        -4.711699         1.564883         1.581402
 H        -3.076265        -2.328851         1.950205
 H        -3.092929        -1.533441         0.331638
 H        -1.697253        -0.351981         2.828895
