19
Iteration:  4828charge 0 multiplicity 1
 O         0.427981        -0.164501         0.497150
 C        -0.882219         0.306360         0.913899
 C        -2.017411         0.659075         0.008323
 C        -2.458192         0.962457         1.511631
 C        -1.136361         1.637541         1.744139
 C        -3.885618         0.820360         1.968051
 O        -4.236438        -0.547451         1.560477
 C        -2.904749        -1.305133         1.321819
 C        -1.763726        -0.448564         1.929872
 H         0.580779        -0.963325         0.913986
 H        -1.837856         1.685214        -0.553102
 H        -2.429836        -0.073265        -0.674138
 H        -0.945682         2.549943         1.155180
 H        -0.747890         1.642286         2.755402
 H        -3.878372         1.044620         3.057840
 H        -4.554240         1.480620         1.374598
 H        -3.027562        -2.342107         1.663552
 H        -2.789058        -1.419389         0.189659
 H        -1.524358        -0.509493         3.024635
