19
Iteration:   172
 O         0.525963        -0.071085         0.593750
 C        -0.798659         0.271529         0.854899
 C        -1.994554         0.754302        -0.049250
 C        -2.423419         0.893197         1.408287
 C        -1.197441         1.606080         1.772239
 C        -3.789363         0.871217         1.951939
 O        -4.263750        -0.477395         1.666702
 C        -3.040185        -1.464757         1.411850
 C        -1.865514        -0.520739         1.684903
 H         0.879869        -0.777870         1.251377
 H        -1.972327         1.820471        -0.545754
 H        -2.443590         0.091680        -0.756124
 H        -0.918723         2.523713         1.301653
 H        -0.898604         1.510448         2.881317
 H        -3.796367         1.041811         3.126752
 H        -4.485108         1.606844         1.479669
 H        -3.094411        -2.209161         2.173444
 H        -3.213437        -1.815144         0.342051
 H        -1.607944        -0.655915         2.757663
