19
Iteration:  1171charge 0 multiplicity 1
 O         0.365175        -0.259730         0.338574
 C        -0.777922         0.402966         0.927511
 C        -2.064921         0.874555         0.122607
 C        -2.410661         0.917993         1.683212
 C        -1.060368         1.487978         2.079546
 C        -3.879136         0.817323         1.953606
 O        -4.243277        -0.412607         1.230208
 C        -3.012906        -1.418429         1.323605
 C        -1.806475        -0.508315         1.829674
 H         1.385902        -0.052481         0.629169
 H        -2.029463         1.778961        -0.480517
 H        -2.474869         0.021106        -0.510228
 H        -0.670633         2.463187         1.896818
 H        -0.690517         1.240697         3.251135
 H        -4.154908         0.913342         2.994958
 H        -4.356249         1.625152         1.417231
 H        -3.139130        -2.301298         1.979310
 H        -2.804914        -1.891104         0.348183
 H        -1.541402        -0.639863         2.920665
