19
Iteration:  3574
 O         0.312083        -0.277922         0.385385
 C        -0.791114         0.379485         0.952112
 C        -1.981241         0.786025         0.117601
 C        -2.449932         1.058147         1.548191
 C        -0.968632         1.590036         1.851540
 C        -3.916957         0.744072         1.856843
 O        -4.204628        -0.623468         1.392575
 C        -2.911221        -1.339590         1.530736
 C        -1.873956        -0.365783         1.910276
 H         0.391141        -0.083839        -0.680353
 H        -2.014576         1.640092        -0.483700
 H        -2.354607        -0.064488        -0.593059
 H        -0.835298         2.622471         1.454324
 H        -0.678498         1.729084         2.938697
 H        -4.181877         0.719711         2.920840
 H        -4.707032         1.313601         1.333378
 H        -3.051969        -2.106960         2.391135
 H        -2.649773        -1.974696         0.666867
 H        -1.586459        -0.317944         2.994971
