19
Iteration:  2143
 O         0.520285         0.004752         0.437643
 C        -0.771077         0.286944         0.917195
 C        -1.887340         0.813942         0.032791
 C        -2.460972         0.912926         1.475763
 C        -1.055439         1.416854         1.966891
 C        -3.844754         0.863724         1.897902
 O        -4.281232        -0.564900         1.688726
 C        -3.173218        -1.297123         1.220138
 C        -1.918642        -0.571384         1.727453
 H         1.085152        -0.435787         1.215397
 H        -1.864566         1.831731        -0.441230
 H        -2.444051         0.138054        -0.557930
 H        -0.787229         2.402717         1.627756
 H        -0.558294         1.132302         2.932179
 H        -3.985419         1.120840         2.987813
 H        -4.555753         1.518337         1.351604
 H        -3.162374        -2.329082         1.671177
 H        -3.222060        -1.545287         0.105877
 H        -1.660916        -0.691094         2.825630
