19
Iteration:  1386
 O         0.492647        -0.087485         0.484287
 C        -0.795308         0.228238         0.966099
 C        -1.901737         0.965396         0.040274
 C        -2.430385         0.929726         1.545973
 C        -0.962838         1.397287         1.923444
 C        -3.884349         0.879142         1.996163
 O        -4.293781        -0.596644         1.592904
 C        -3.162665        -1.363986         1.147219
 C        -1.949877        -0.557075         1.712721
 H         1.212399         0.370681         1.065544
 H        -1.481029         1.890006        -0.272596
 H        -2.425689         0.364283        -0.739042
 H        -0.718759         2.448881         1.410185
 H        -0.632684         1.423275         2.963096
 H        -4.163625         0.911849         3.079774
 H        -4.506535         1.574802         1.418487
 H        -3.178491        -2.403597         1.629056
 H        -3.123855        -1.512478         0.064193
 H        -1.788703        -0.586714         2.762914
