19
Iteration:  4775
 O         0.386471        -0.179096         0.369287
 C        -0.830096         0.303472         0.897529
 C        -1.946608         0.839022        -0.039538
 C        -2.487903         0.981369         1.445010
 C        -0.978385         1.427135         1.871438
 C        -3.999661         0.790274         1.866270
 O        -4.157411        -0.608933         1.497384
 C        -2.943795        -1.351753         1.597493
 C        -1.921784        -0.320230         1.885503
 H         1.072923        -0.022764         0.900487
 H        -1.602859         1.861588        -0.557180
 H        -2.550886         0.289309        -0.752570
 H        -0.887947         2.494095         1.601909
 H        -0.832294         1.234651         2.930507
 H        -4.017274         0.895994         2.949357
 H        -4.743940         1.389562         1.255571
 H        -3.007411        -2.061684         2.463608
 H        -2.806161        -1.991001         0.650895
 H        -1.659306        -0.230259         2.995055
