19
Iteration:  3705charge 0 multiplicity 1
 O         0.500123        -0.116979         0.506779
 C        -0.825961         0.281606         0.908788
 C        -1.895176         0.839751        -0.066377
 C        -2.505386         0.952612         1.432826
 C        -1.062495         1.534918         1.750267
 C        -3.954754         0.826363         1.827707
 O        -4.166570        -0.643070         1.986228
 C        -3.054603        -1.341811         1.267313
 C        -1.933236        -0.453509         1.729374
 H         1.075296        -0.112389         1.231839
 H        -1.726821         1.765994        -0.622085
 H        -2.294465        -0.036053        -0.684204
 H        -0.675667         2.438503         1.205807
 H        -0.860470         1.487624         2.837925
 H        -4.224009         1.336658         2.791894
 H        -4.686106         1.186672         1.075940
 H        -3.006886        -2.371552         1.752191
 H        -3.263210        -1.432350         0.193190
 H        -1.561261        -0.497906         2.742206
