19
Iteration:  2485charge 0 multiplicity 1
 O         0.429454        -0.178333         0.588179
 C        -0.846295         0.223788         0.902221
 C        -1.944102         0.978550        -0.020515
 C        -2.435654         0.976250         1.448895
 C        -1.016536         1.444787         1.985295
 C        -3.858876         0.852214         1.842568
 O        -4.240784        -0.644438         1.734369
 C        -3.025281        -1.347283         1.258142
 C        -1.890364        -0.480693         1.714940
 H         0.720407         0.449987        -0.214234
 H        -1.634058         1.956488        -0.283795
 H        -2.624421         0.446551        -0.731403
 H        -0.805384         2.561365         1.631518
 H        -0.716485         1.245446         3.008835
 H        -4.259273         1.247718         2.771775
 H        -4.503055         1.258930         1.029035
 H        -2.996117        -2.383418         1.683052
 H        -3.023377        -1.559868         0.180992
 H        -1.638114        -0.553936         2.798561
