19
Iteration:  4431charge 0 multiplicity 1
 O         0.409217        -0.088121         0.435981
 C        -0.848624         0.268207         0.865038
 C        -2.032886         0.637788        -0.030642
 C        -2.458820         0.861915         1.476331
 C        -1.142322         1.633425         1.725406
 C        -3.853423         0.856983         1.952261
 O        -4.139923        -0.497808         1.413404
 C        -2.976660        -1.360275         1.626929
 C        -1.804582        -0.478733         1.880943
 H         0.985035        -0.058770         1.304146
 H        -1.917471         1.640555        -0.546802
 H        -2.662196        -0.074144        -0.504908
 H        -1.248076         2.621948         1.313225
 H        -0.720268         1.770904         2.681490
 H        -3.843385         0.791869         3.090598
 H        -4.516118         1.533285         1.472382
 H        -3.327227        -1.909204         2.490018
 H        -2.950243        -2.060724         0.812030
 H        -1.365593        -0.625466         2.926833
