19
Iteration:  3221charge 0 multiplicity 1
 O         0.396921        -0.217223         0.623539
 C        -0.822535         0.320015         0.858981
 C        -2.067722         0.691883        -0.078221
 C        -2.493659         0.950921         1.414924
 C        -1.126962         1.606088         1.697801
 C        -3.901594         0.836473         1.963980
 O        -4.207969        -0.475722         1.603603
 C        -2.879240        -1.388033         1.532750
 C        -1.728653        -0.532936         1.773914
 H         0.952359         0.652470         0.358780
 H        -2.038193         1.553084        -0.755406
 H        -2.440158        -0.071829        -0.634064
 H        -1.100985         2.592551         1.185016
 H        -0.780858         1.640877         2.737851
 H        -3.974638         0.997191         3.066543
 H        -4.576053         1.589957         1.497639
 H        -3.086417        -2.250535         2.215067
 H        -3.034713        -1.717426         0.528688
 H        -1.365876        -0.433135         2.800379
