19
Iteration:    38charge 0 multiplicity 1
 O         0.636300         0.083655         0.566455
 C        -0.772015         0.241582         0.841914
 C        -1.878218         0.655291        -0.097216
 C        -2.476621         0.835640         1.418828
 C        -1.162649         1.473110         1.693878
 C        -3.941526         0.860225         2.024414
 O        -4.343992        -0.461144         1.713066
 C        -3.145330        -1.298311         1.428448
 C        -1.797367        -0.582601         1.720811
 H         1.000437        -0.243955         1.326764
 H        -1.741719         1.664868        -0.590126
 H        -2.378438        -0.132025        -0.805920
 H        -0.867328         2.477428         1.319418
 H        -0.829931         1.445077         2.744868
 H        -3.828888         0.952439         3.213855
 H        -4.677166         1.586801         1.525872
 H        -3.310077        -2.300513         1.956348
 H        -3.217711        -1.541772         0.324208
 H        -1.407854        -0.793901         2.739220
