19
Iteration:    92
 O         0.367629        -0.257895         0.453254
 C        -0.836270         0.317336         0.871089
 C        -1.949963         0.852071        -0.041899
 C        -2.470535         0.892958         1.495798
 C        -1.130340         1.498663         1.913758
 C        -3.975174         0.849116         1.705449
 O        -4.144841        -0.528236         1.829313
 C        -2.887746        -1.320942         1.365100
 C        -1.842273        -0.405582         1.806600
 H         0.982456        -0.250647         1.158414
 H        -1.626637         1.854273        -0.509648
 H        -2.393676         0.021869        -0.768134
 H        -0.951110         2.525935         1.502564
 H        -0.896943         1.376804         2.970239
 H        -4.483956         1.381987         2.568167
 H        -4.412118         1.296448         0.745899
 H        -2.926520        -2.318440         1.941048
 H        -2.902127        -1.581566         0.259441
 H        -1.514811        -0.648069         2.827460
