19
Iteration:   178
 O         0.526684        -0.049333         0.591999
 C        -0.788856         0.322400         0.869735
 C        -1.975560         0.760858        -0.041519
 C        -2.460786         0.870191         1.432880
 C        -1.130571         1.588807         1.740201
 C        -3.818883         0.907172         1.997999
 O        -4.249148        -0.507489         1.643700
 C        -3.102609        -1.439300         1.385374
 C        -1.880457        -0.557717         1.685712
 H         0.799246        -0.704593         1.396537
 H        -1.781614         1.656244        -0.617727
 H        -2.408127        -0.090994        -0.679504
 H        -0.971468         2.599386         1.274641
 H        -0.643357         1.611250         2.697170
 H        -3.778595         1.027579         3.033297
 H        -4.566795         1.546330         1.534309
 H        -3.101866        -2.274447         2.168062
 H        -3.270265        -1.972921         0.464220
 H        -1.492061        -0.624034         2.710758
