19
Iteration:   751
 O         0.468302        -0.059837         0.428981
 C        -0.737790         0.330611         0.933860
 C        -1.784739         0.876369         0.018802
 C        -2.458511         0.915658         1.468247
 C        -1.135501         1.403598         2.029276
 C        -3.910928         0.849879         1.885975
 O        -4.263971        -0.524773         1.704587
 C        -3.133882        -1.323519         1.222619
 C        -1.879811        -0.547778         1.722306
 H         0.501810        -1.116587         0.456369
 H        -1.661222         1.855915        -0.349758
 H        -2.030591        -0.034650        -0.601168
 H        -0.969264         2.506962         1.800123
 H        -0.974403         1.177397         3.049629
 H        -3.927532         1.129406         2.929157
 H        -4.545524         1.516531         1.212933
 H        -3.140051        -2.310244         1.748434
 H        -3.217330        -1.402446         0.094514
 H        -1.477735        -0.731878         2.751935
