19
Iteration:  1532charge 0 multiplicity 1
 O         0.542673        -0.099019         0.534386
 C        -0.792295         0.240458         0.933275
 C        -1.905076         0.872509         0.019598
 C        -2.436971         0.974032         1.486809
 C        -0.944697         1.448694         1.970190
 C        -3.955238         0.790203         1.968484
 O        -4.310129        -0.531007         1.586587
 C        -3.122819        -1.367485         1.255923
 C        -1.936069        -0.554735         1.678878
 H         0.820360         0.672855        -0.172576
 H        -1.742851         1.808433        -0.554891
 H        -2.339080         0.106923        -0.598285
 H        -0.690646         2.341900         1.458829
 H        -0.797170         1.664686         3.128322
 H        -3.759891         0.841999         3.027650
 H        -4.687686         1.618230         1.723879
 H        -3.196829        -2.264712         1.936451
 H        -3.212968        -1.596930         0.199967
 H        -1.663240        -0.676872         2.760581
