19
Iteration:  2160
 O         0.476827        -0.153364         0.381352
 C        -0.727901         0.332232         0.906850
 C        -1.909695         0.909289         0.040848
 C        -2.438627         0.887885         1.522242
 C        -1.147321         1.475897         2.067951
 C        -3.894161         0.881136         1.846641
 O        -4.257762        -0.535711         1.782475
 C        -3.037988        -1.379897         1.204524
 C        -1.892578        -0.515827         1.634004
 H         1.006714        -0.596309         1.206820
 H        -1.634703         1.811655        -0.469409
 H        -2.267845         0.139457        -0.738449
 H        -0.924789         2.541286         1.791886
 H        -1.311149         1.237893         3.111907
 H        -4.125176         1.240742         2.848228
 H        -4.487874         1.480272         1.158109
 H        -3.093114        -2.354972         1.637255
 H        -3.158014        -1.448549         0.140591
 H        -1.595058        -0.826395         2.616354
