19
Iteration:  4243charge 0 multiplicity 1
 O         0.464316        -0.133333         0.505834
 C        -0.801931         0.265601         0.863468
 C        -1.988006         0.700497        -0.024902
 C        -2.460649         1.071271         1.475400
 C        -0.994778         1.605223         1.708141
 C        -3.928957         0.736476         1.978851
 O        -4.265326        -0.591846         1.532528
 C        -3.030189        -1.413719         1.543566
 C        -1.849322        -0.406003         1.827168
 H         0.927980         0.739393         0.449804
 H        -1.822458         1.566196        -0.645735
 H        -2.483137        -0.071405        -0.681283
 H        -0.754397         2.504560         1.176547
 H        -0.725559         1.654540         2.764822
 H        -3.906910         0.930307         3.104298
 H        -4.747733         1.272132         1.502232
 H        -3.056514        -2.200954         2.331411
 H        -3.085613        -1.889365         0.604260
 H        -1.551732        -0.333480         2.917387
