19
Iteration:  4868charge 0 multiplicity 1
 O         0.548400        -0.032632         0.550885
 C        -0.755571         0.322454         0.859470
 C        -1.923454         0.935218        -0.056112
 C        -2.456252         0.964699         1.410016
 C        -1.085364         1.529891         1.821009
 C        -3.832449         0.876188         1.810579
 O        -4.276556        -0.582410         1.660889
 C        -3.148356        -1.573533         1.649679
 C        -1.893519        -0.528109         1.704111
 H         0.453241        -0.611438        -0.323732
 H        -1.654051         1.777166        -0.578242
 H        -2.449278         0.280918        -0.756211
 H        -0.929250         2.559439         1.460187
 H        -0.850196         1.438049         2.901825
 H        -4.091680         0.964557         2.866823
 H        -4.442226         1.435787         1.114831
 H        -3.207462        -2.097652         2.608733
 H        -3.280151        -2.290307         0.881750
 H        -1.421327        -0.645081         2.655920
