19
Iteration:  1808charge 0 multiplicity 1
 O         0.451880        -0.171844         0.576737
 C        -0.796450         0.322374         0.872600
 C        -1.997464         0.927674        -0.031467
 C        -2.387980         0.914873         1.509624
 C        -1.057656         1.506172         1.964479
 C        -3.865938         0.791604         1.974578
 O        -4.248813        -0.508725         1.532443
 C        -3.060392        -1.374548         1.330487
 C        -1.860567        -0.580293         1.729755
 H         0.812254         0.093826        -0.266510
 H        -1.990097         1.960753        -0.468436
 H        -2.490162         0.328890        -0.782061
 H        -0.725222         2.546966         1.679736
 H        -0.775653         1.359177         2.990274
 H        -3.989485         0.894001         3.071244
 H        -4.524370         1.511924         1.466234
 H        -3.353521        -2.256268         1.996471
 H        -2.986903        -1.617760         0.212565
 H        -1.573960        -0.744119         2.757899
