19
Iteration:  4188
 O         0.249101        -0.278672         0.314429
 C        -0.856590         0.331213         0.963509
 C        -2.009243         0.765652         0.068979
 C        -2.473623         1.004320         1.580029
 C        -1.107749         1.767642         1.780475
 C        -3.897372         0.814952         1.860536
 O        -4.059401        -0.627315         1.401161
 C        -2.903000        -1.437487         1.609070
 C        -1.846472        -0.413776         1.885083
 H         1.055300        -0.171022         1.010231
 H        -1.803483         1.648625        -0.488723
 H        -2.329141        -0.108188        -0.597895
 H        -1.063644         2.722514         1.328934
 H        -0.578736         1.837026         2.719281
 H        -4.191243         1.187812         2.831876
 H        -4.572003         1.273120         1.155692
 H        -3.029794        -2.099298         2.486150
 H        -2.681933        -2.054004         0.784791
 H        -1.384706        -0.449699         2.936553
