19
Iteration:  3466
 O         0.513000        -0.115169         0.488528
 C        -0.826004         0.311419         0.844514
 C        -1.970992         0.841683        -0.043916
 C        -2.444415         0.926022         1.471235
 C        -1.131350         1.587037         1.809944
 C        -3.910203         0.898779         1.776278
 O        -4.162842        -0.533891         1.895972
 C        -3.104495        -1.470140         1.396892
 C        -1.843290        -0.533318         1.701409
 H         1.031968        -0.261716         1.453047
 H        -1.900614         1.672676        -0.736285
 H        -2.484666        -0.052642        -0.607533
 H        -0.810012         2.504735         1.316454
 H        -0.771399         1.663194         2.873949
 H        -4.325202         1.275380         2.734497
 H        -4.621605         1.148117         0.998973
 H        -2.947462        -2.447604         1.882969
 H        -3.254203        -1.715173         0.327200
 H        -1.414257        -0.848735         2.735259
