19
Iteration:    84charge 0 multiplicity 1
 O         0.375465        -0.209981         0.456086
 C        -0.809362         0.288507         0.953478
 C        -1.925033         0.823446        -0.062264
 C        -2.468416         0.963131         1.405240
 C        -1.141042         1.539376         1.945602
 C        -3.940251         0.859824         1.735163
 O        -4.163974        -0.550287         1.823577
 C        -2.945640        -1.334914         1.379134
 C        -1.836137        -0.501357         1.721914
 H         1.001930        -0.113039         1.062962
 H        -1.645342         1.698893        -0.725713
 H        -2.444003         0.088633        -0.651379
 H        -0.910635         2.517329         1.593189
 H        -0.756747         1.474284         3.024074
 H        -4.208991         1.347531         2.795884
 H        -4.542391         1.262705         0.892200
 H        -2.975931        -2.204779         2.042843
 H        -3.092358        -1.719954         0.336409
 H        -1.686448        -0.560087         2.819479
