19
Iteration:  3931charge 0 multiplicity 1
 O         0.582077        -0.102548         0.499512
 C        -0.778504         0.343127         0.859871
 C        -1.966778         0.683705        -0.057812
 C        -2.539878         0.989646         1.471888
 C        -1.076548         1.631041         1.653123
 C        -3.974071         0.744033         1.945369
 O        -4.238653        -0.605425         1.625733
 C        -3.025971        -1.380953         1.554509
 C        -1.837732        -0.351511         1.872945
 H         0.563891        -0.957814         0.127395
 H        -1.929230         1.618113        -0.600351
 H        -2.486871        -0.161168        -0.636802
 H        -0.931210         2.608505         1.120242
 H        -0.528815         1.616162         2.625597
 H        -3.839944         0.896060         3.023485
 H        -4.852949         1.319508         1.554755
 H        -3.192081        -2.150725         2.269801
 H        -2.935953        -1.768510         0.513595
 H        -1.629979        -0.309847         3.002452
