19
Iteration:  3335charge 0 multiplicity 1
 O         0.521936        -0.058487         0.371838
 C        -0.754839         0.335715         0.868866
 C        -1.906217         0.621410        -0.036637
 C        -2.471433         0.959318         1.477354
 C        -1.090480         1.602594         1.715944
 C        -3.873102         0.780186         1.991581
 O        -4.312528        -0.528829         1.576079
 C        -3.087391        -1.415526         1.511602
 C        -1.863371        -0.374741         1.874295
 H         0.903288        -0.447451         1.086041
 H        -1.847120         1.511512        -0.693948
 H        -2.391945        -0.299125        -0.633746
 H        -0.984807         2.576219         1.262475
 H        -0.878607         1.552327         2.820390
 H        -3.927741         0.720447         3.140458
 H        -4.622287         1.522008         1.670729
 H        -3.120105        -2.074092         2.386593
 H        -2.958119        -2.031834         0.559089
 H        -1.627404        -0.445959         2.988182
