19
Iteration:  1979charge 0 multiplicity 1
 O         0.542780        -0.053973         0.467935
 C        -0.759051         0.296965         0.901898
 C        -1.912955         0.897697        -0.027586
 C        -2.475808         0.883949         1.532935
 C        -0.978859         1.471014         1.889682
 C        -3.931143         0.740599         1.976322
 O        -4.293851        -0.538860         1.588232
 C        -3.181338        -1.311400         1.349950
 C        -1.943767        -0.459525         1.650458
 H         1.038016        -0.616056         1.151737
 H        -1.617237         1.862217        -0.432801
 H        -2.229456         0.043243        -0.628860
 H        -0.666671         2.380338         1.446251
 H        -0.598096         1.419813         3.019565
 H        -3.919595         0.692026         3.067251
 H        -4.684834         1.493943         1.743587
 H        -3.253122        -2.244428         2.006887
 H        -2.992611        -1.765238         0.328995
 H        -1.536942        -0.717464         2.706663
