19
Iteration:  2765charge 0 multiplicity 1
 O         0.500369        -0.047675         0.480905
 C        -0.785248         0.357338         0.933908
 C        -1.915345         0.751672        -0.011144
 C        -2.489982         0.956763         1.493837
 C        -1.074499         1.478864         1.829700
 C        -3.888956         0.879572         1.869035
 O        -4.262511        -0.601548         1.717914
 C        -3.011098        -1.383105         1.342256
 C        -1.913180        -0.469008         1.738313
 H         0.709108        -0.978555         0.870775
 H        -1.889525         1.739911        -0.509007
 H        -2.330600        -0.009723        -0.691905
 H        -0.814337         2.453807         1.374250
 H        -0.700431         1.645235         2.902512
 H        -4.016164         1.159257         2.942766
 H        -4.638216         1.412073         1.269596
 H        -2.996683        -2.334813         1.855287
 H        -3.104622        -1.674864         0.233519
 H        -1.749925        -0.597987         2.823633
