19
Iteration:  2272charge 0 multiplicity 1
 O         0.526176        -0.017438         0.440170
 C        -0.738496         0.309739         0.900275
 C        -1.865096         0.773822        -0.056867
 C        -2.453998         0.907923         1.537893
 C        -1.023980         1.434881         1.962634
 C        -3.879535         0.755307         2.050358
 O        -4.374246        -0.504227         1.586293
 C        -3.161730        -1.289275         1.263052
 C        -1.932255        -0.487389         1.678285
 H         1.184767        -0.144245         1.067485
 H        -1.604808         1.759365        -0.661129
 H        -2.236879        -0.054160        -0.659608
 H        -0.681051         2.440744         1.713526
 H        -0.782471         1.037723         3.143221
 H        -3.971044         0.932745         3.164024
 H        -4.580130         1.409544         1.515664
 H        -3.106330        -2.184275         1.893289
 H        -3.029390        -1.733784         0.256656
 H        -1.636744        -0.683029         2.709209
