19
Iteration:  3826charge 0 multiplicity 1
 O         0.441191        -0.242038         0.579529
 C        -0.781517         0.269238         0.814906
 C        -2.100243         0.730116         0.021811
 C        -2.488499         0.871522         1.423298
 C        -1.190172         1.640123         1.722772
 C        -3.819700         0.846435         1.965811
 O        -4.172906        -0.534468         1.550711
 C        -2.932299        -1.368652         1.481774
 C        -1.839440        -0.423061         1.826270
 H         0.904794         0.695511         0.260562
 H        -1.959586         1.600092        -0.674320
 H        -2.619926         0.035498        -0.601808
 H        -1.195764         2.701820         1.394741
 H        -0.754415         1.627379         2.703555
 H        -3.700819         1.000304         3.087432
 H        -4.488904         1.661215         1.620181
 H        -2.993922        -2.182367         2.269437
 H        -2.869530        -1.886292         0.557297
 H        -1.459710        -0.342439         2.819183
