19
Iteration:   386charge 0 multiplicity 1
 O         0.474829        -0.162897         0.384323
 C        -0.755159         0.319076         0.892661
 C        -1.852322         0.898977         0.012008
 C        -2.463946         0.833709         1.508762
 C        -1.145930         1.513312         1.967801
 C        -3.971425         0.840046         1.748535
 O        -4.235407        -0.564273         1.733619
 C        -3.018536        -1.298698         1.387638
 C        -1.833443        -0.449135         1.773629
 H         0.489241        -1.185621         0.698240
 H        -1.726446         1.905952        -0.209594
 H        -2.437083         0.375136        -0.784189
 H        -1.016325         2.493347         1.561770
 H        -0.815333         1.330642         3.062101
 H        -4.192965         1.273669         2.724694
 H        -4.512433         1.343134         0.930384
 H        -3.022995        -2.240406         1.961841
 H        -3.130937        -1.661920         0.404841
 H        -1.638340        -0.597454         2.871573
