19
Iteration:  2167
 O         0.439235        -0.193899         0.388416
 C        -0.759941         0.328723         0.943664
 C        -1.854420         0.951372        -0.010407
 C        -2.473346         0.908520         1.490496
 C        -1.165817         1.507500         2.088567
 C        -3.922110         0.853535         1.841128
 O        -4.212786        -0.531673         1.794635
 C        -3.063890        -1.358904         1.204320
 C        -1.827777        -0.576995         1.642864
 H         1.007590        -0.612524         1.040825
 H        -1.674929         1.959489        -0.421077
 H        -2.333124         0.304935        -0.726584
 H        -0.923669         2.608130         1.833541
 H        -0.961398         1.228062         3.134588
 H        -4.303277         1.195518         2.821062
 H        -4.503933         1.466695         1.093285
 H        -2.981859        -2.430800         1.625257
 H        -3.217166        -1.517884         0.129125
 H        -1.589698        -0.671719         2.735365
