19
Iteration:  1467
 O         0.366598        -0.146995         0.410386
 C        -0.860997         0.348984         0.892287
 C        -2.026218         0.950697         0.188745
 C        -2.406603         0.919690         1.711173
 C        -0.914470         1.451909         1.959819
 C        -3.894622         0.805222         1.886888
 O        -4.195632        -0.466328         1.209549
 C        -2.975206        -1.436903         1.398587
 C        -1.881285        -0.455269         1.869986
 H         0.223429        -1.130096         0.086747
 H        -1.931818         1.935859        -0.335829
 H        -2.563140         0.281563        -0.453614
 H        -0.738373         2.413194         1.601591
 H        -0.464477         1.245557         3.008963
 H        -4.147477         0.640313         2.999838
 H        -4.696864         1.470634         1.398705
 H        -3.252383        -2.207772         2.153594
 H        -2.797372        -1.872350         0.388948
 H        -1.518016        -0.678195         2.932053
