19
Iteration:  4584
 O         0.529660        -0.011124         0.514432
 C        -0.753654         0.375089         0.794557
 C        -1.899637         0.735091        -0.090129
 C        -2.476834         0.790094         1.405838
 C        -1.179707         1.454979         1.817035
 C        -3.836006         0.885417         1.817453
 O        -4.280185        -0.502372         1.862643
 C        -3.083709        -1.402007         1.492203
 C        -1.858637        -0.513906         1.680654
 H         1.039121         0.242297         1.337891
 H        -2.052214         1.676454        -0.621520
 H        -2.273241        -0.146456        -0.664331
 H        -0.992819         2.438953         1.400999
 H        -1.036090         1.388550         2.892667
 H        -3.974127         1.460435         2.726158
 H        -4.438271         1.334241         1.112489
 H        -3.187513        -2.200116         2.267136
 H        -3.333460        -1.792945         0.486547
 H        -1.349486        -0.794189         2.620050
