19
Iteration:  2031
 O         0.332164        -0.183185         0.307759
 C        -0.803298         0.322939         0.940529
 C        -1.991539         0.835279         0.176150
 C        -2.446918         0.963546         1.651614
 C        -0.968933         1.520634         1.982420
 C        -3.931377         0.815205         1.907610
 O        -4.212414        -0.529439         1.327669
 C        -2.981923        -1.353526         1.339245
 C        -1.812481        -0.412690         1.839611
 H         0.701874        -0.807209         0.844132
 H        -1.706073         1.720168        -0.386115
 H        -2.709886         0.114551        -0.341951
 H        -0.859516         2.556845         1.764893
 H        -0.596617         1.317302         3.025644
 H        -4.363019         0.904995         2.957420
 H        -4.524249         1.455188         1.259042
 H        -3.041425        -2.142764         2.090433
 H        -2.768485        -1.928366         0.331570
 H        -1.479390        -0.791449         2.827812
