19
Iteration:  1602charge 0 multiplicity 1
 O         0.418428        -0.311865         0.511692
 C        -0.752015         0.350142         0.921617
 C        -1.781301         1.006001        -0.069145
 C        -2.482276         0.992301         1.477120
 C        -0.986208         1.424479         2.026752
 C        -4.038518         0.757691         1.791106
 O        -4.195627        -0.693124         1.880497
 C        -3.087152        -1.306520         1.205402
 C        -1.971181        -0.333645         1.683538
 H         1.081017         0.496270         0.279134
 H        -1.657844         2.005685        -0.547307
 H        -2.247073         0.263538        -0.793386
 H        -0.698850         2.513591         1.885236
 H        -0.616641         1.226058         2.949707
 H        -4.440436         1.100438         2.848323
 H        -4.706803         1.137586         1.024977
 H        -3.043581        -2.308639         1.535937
 H        -3.239524        -1.167347         0.070725
 H        -1.480223        -0.599151         2.649441
