19
Iteration:  2524
 O         0.419328        -0.283644         0.370367
 C        -0.712509         0.380873         0.945371
 C        -1.924463         0.926989         0.003349
 C        -2.451528         0.916606         1.514578
 C        -1.102836         1.565204         2.043476
 C        -3.938090         0.840982         1.794915
 O        -4.237408        -0.666119         1.779456
 C        -2.989342        -1.329675         1.277665
 C        -1.919221        -0.424875         1.674512
 H         1.046072        -0.314616         1.015811
 H        -1.561346         1.962405        -0.342353
 H        -2.396140         0.120178        -0.659955
 H        -0.926675         2.543557         1.728676
 H        -0.951737         1.373818         3.151627
 H        -4.235782         1.259802         2.771048
 H        -4.386571         1.413556         0.972079
 H        -2.821972        -2.324615         1.667275
 H        -3.106198        -1.345413         0.139290
 H        -1.783552        -0.726331         2.714989
