19
Iteration:  2345charge 0 multiplicity 1
 O         0.280348        -0.263609         0.275022
 C        -0.746003         0.364931         1.017647
 C        -2.027966         0.861107         0.106393
 C        -2.443214         0.985792         1.607548
 C        -0.945044         1.522504         2.052826
 C        -3.944178         0.736706         1.932972
 O        -4.158506        -0.536127         1.287415
 C        -2.972924        -1.309780         1.337218
 C        -1.887978        -0.391330         1.872165
 H         0.990744        -0.158615         0.794624
 H        -1.875862         1.707866        -0.515723
 H        -2.449539        -0.001516        -0.383410
 H        -0.650154         2.556748         1.749823
 H        -0.675893         1.239039         2.969120
 H        -4.207802         0.595979         2.980964
 H        -4.596026         1.544355         1.549351
 H        -3.011108        -2.162232         2.034366
 H        -2.888962        -1.825915         0.373782
 H        -1.647915        -0.649640         2.911028
