19
Iteration:  3433
 O         0.384284        -0.131739         0.417032
 C        -0.807309         0.278661         0.898733
 C        -1.871564         0.927467        -0.083037
 C        -2.482853         0.983919         1.394635
 C        -1.067892         1.541237         1.865127
 C        -4.021286         0.757853         1.673079
 O        -4.182841        -0.629637         1.918348
 C        -2.996732        -1.352890         1.475031
 C        -1.780279        -0.437620         1.875859
 H         0.300650        -1.054217         0.542481
 H        -1.640077         1.827387        -0.643130
 H        -2.211547         0.062906        -0.822036
 H        -0.723427         2.484468         1.456341
 H        -0.914846         1.452006         2.979480
 H        -4.245503         1.415254         2.529403
 H        -4.571833         1.076509         0.796578
 H        -2.939343        -2.385817         1.840320
 H        -3.076879        -1.302866         0.372323
 H        -1.531036        -0.488817         3.001613
