19
Iteration:  4692charge 0 multiplicity 1
 O         0.387066        -0.072108         0.482228
 C        -0.885376         0.301900         0.938282
 C        -1.902089         0.766692        -0.055396
 C        -2.482892         1.005076         1.481037
 C        -1.017608         1.553335         1.669474
 C        -3.851027         0.731903         1.952734
 O        -4.218518        -0.593065         1.543998
 C        -2.983160        -1.335903         1.534242
 C        -1.915378        -0.419341         1.817623
 H         0.623140        -0.824309         1.090570
 H        -1.795187         1.697044        -0.500667
 H        -2.329567         0.011145        -0.713330
 H        -0.655448         2.440682         1.144860
 H        -0.767263         1.554077         2.754982
 H        -3.753240         0.720578         3.091651
 H        -4.592946         1.468535         1.600472
 H        -3.130151        -2.216208         2.209880
 H        -2.864882        -1.799781         0.582959
 H        -1.651573        -0.360377         2.856525
