19
Iteration:  4547
 O         0.562067        -0.027509         0.520109
 C        -0.815508         0.270284         0.891882
 C        -1.832329         0.701949        -0.118380
 C        -2.492081         0.998718         1.302402
 C        -1.111274         1.529955         1.712316
 C        -3.886234         0.818495         1.964144
 O        -4.283052        -0.599158         1.844716
 C        -3.131640        -1.430067         1.437434
 C        -1.936184        -0.421858         1.732042
 H         1.131292         0.122611         1.398406
 H        -1.827573         1.648080        -0.655009
 H        -2.288101        -0.106947        -0.639847
 H        -0.704461         2.422013         1.138899
 H        -0.811067         1.632534         2.794501
 H        -3.768101         0.952812         3.048472
 H        -4.686852         1.484914         1.535274
 H        -3.110187        -2.408928         1.968658
 H        -3.033036        -1.611904         0.364197
 H        -1.573940        -0.432218         2.748579
