19
Iteration:  1882
 O         0.417406        -0.245085         0.562604
 C        -0.841391         0.301464         0.943222
 C        -1.926050         1.040384        -0.004279
 C        -2.466702         0.938332         1.499444
 C        -1.059844         1.451904         1.966099
 C        -3.919579         0.845890         1.798055
 O        -4.161988        -0.564524         1.799081
 C        -3.034932        -1.428802         1.200329
 C        -1.872884        -0.502994         1.689663
 H         0.790381         0.478422        -0.163845
 H        -1.497729         2.051033        -0.358860
 H        -2.398401         0.410362        -0.838189
 H        -0.772906         2.468489         1.772736
 H        -0.881660         1.288939         3.152736
 H        -4.271620         1.328277         2.747771
 H        -4.420863         1.411092         0.916381
 H        -3.121901        -2.451717         1.732686
 H        -3.296242        -1.545820         0.144862
 H        -1.425899        -0.961647         2.611722
