19
Iteration:   815
 O         0.371223        -0.179287         0.495908
 C        -0.830599         0.260263         0.911792
 C        -1.939656         0.904773         0.030264
 C        -2.382563         0.933119         1.564436
 C        -1.058746         1.581153         1.992291
 C        -3.881549         0.826516         2.022885
 O        -4.242342        -0.508830         1.409920
 C        -2.997178        -1.361916         1.259723
 C        -1.832575        -0.489824         1.715043
 H         0.403123        -1.141582         0.657056
 H        -1.917058         1.874750        -0.402884
 H        -2.388755         0.057286        -0.595771
 H        -0.838527         2.607062         1.640790
 H        -0.769737         1.574877         3.056482
 H        -3.986794         0.725471         3.179479
 H        -4.670587         1.527873         1.603475
 H        -3.203957        -2.126287         2.083547
 H        -2.948457        -1.775489         0.245529
 H        -1.333068        -0.869222         2.673332
