19
Iteration:  2258
 O         0.510072        -0.006503         0.404331
 C        -0.775417         0.255901         0.966864
 C        -1.829350         0.836386         0.048833
 C        -2.453085         0.913068         1.440842
 C        -1.099247         1.459417         1.932628
 C        -3.867727         0.840511         1.963145
 O        -4.255395        -0.532049         1.645253
 C        -3.155000        -1.373448         1.241119
 C        -1.918620        -0.551425         1.728541
 H         1.012739        -0.487686         1.178283
 H        -1.669535         1.841201        -0.357934
 H        -2.341335         0.184965        -0.705926
 H        -0.793814         2.466434         1.517979
 H        -0.894397         1.297522         3.017684
 H        -3.881877         0.926433         3.054573
 H        -4.552845         1.636032         1.630605
 H        -3.340919        -2.338455         1.657966
 H        -3.369579        -1.430669         0.183862
 H        -1.726824        -0.753996         2.760970
