19
Iteration:  4873
 O         0.520948        -0.034084         0.542595
 C        -0.731646         0.313209         0.875922
 C        -1.915476         0.942311        -0.072084
 C        -2.413731         0.895457         1.402705
 C        -1.105039         1.534578         1.822787
 C        -3.873887         0.866614         1.808702
 O        -4.283303        -0.589843         1.657679
 C        -3.158481        -1.511979         1.693712
 C        -1.857434        -0.540281         1.690991
 H         0.456301        -0.370015        -0.294066
 H        -1.614315         1.966856        -0.625726
 H        -2.481937         0.310609        -0.783621
 H        -0.899003         2.554007         1.475538
 H        -0.923998         1.387817         2.883475
 H        -4.016693         1.102650         2.889823
 H        -4.422132         1.476242         1.046493
 H        -3.214827        -2.153288         2.608739
 H        -3.259712        -2.254902         0.801910
 H        -1.421160        -0.746986         2.726073
