19
Iteration:  4421
 O         0.451676        -0.091332         0.496998
 C        -0.817906         0.312686         0.882290
 C        -2.101152         0.540295        -0.034927
 C        -2.449039         0.911575         1.549420
 C        -1.172574         1.634591         1.681565
 C        -3.828371         0.823917         1.972568
 O        -4.210362        -0.433429         1.438535
 C        -2.973755        -1.402594         1.532678
 C        -1.772197        -0.463470         1.838800
 H         1.282817         0.198318         1.097352
 H        -2.179970         1.529319        -0.583392
 H        -2.451413        -0.263399        -0.665351
 H        -0.977253         2.573360         1.205151
 H        -0.793580         1.540026         2.678583
 H        -4.018621         0.889767         3.093506
 H        -4.479810         1.616973         1.593678
 H        -3.033288        -1.867532         2.490374
 H        -3.060221        -2.126710         0.749250
 H        -1.437764        -0.688297         2.892643
