19
Iteration:  2912charge 0 multiplicity 1
 O         0.518070        -0.041237         0.484679
 C        -0.752854         0.331096         0.851086
 C        -1.950967         0.753199         0.005309
 C        -2.461811         0.911808         1.432516
 C        -1.116864         1.524466         1.761238
 C        -3.905961         0.835909         1.923266
 O        -4.243949        -0.574996         1.612168
 C        -3.116859        -1.356611         1.476280
 C        -1.759803        -0.479828         1.858418
 H         0.600979        -0.894441         0.714853
 H        -1.848969         1.716125        -0.518419
 H        -2.395052        -0.077224        -0.735910
 H        -0.953258         2.458042         1.264300
 H        -0.965353         1.596762         2.830127
 H        -4.140059         0.963916         3.005442
 H        -4.647204         1.407027         1.294899
 H        -3.220337        -2.267477         2.150427
 H        -3.060760        -1.645096         0.424316
 H        -1.634139        -0.346641         2.922944
