19
Iteration:  2041charge 0 multiplicity 1
 O         0.335066        -0.226143         0.287033
 C        -0.792583         0.327717         0.961178
 C        -2.020408         0.913412         0.199284
 C        -2.433566         1.007430         1.692500
 C        -0.910968         1.574030         1.980064
 C        -3.996437         0.848300         1.860598
 O        -4.227378        -0.580335         1.302587
 C        -2.946550        -1.418002         1.377544
 C        -1.855444        -0.489354         1.862090
 H         0.925318        -0.699725         0.902553
 H        -1.869804         1.765575        -0.459478
 H        -2.596641         0.148654        -0.469749
 H        -0.647913         2.532307         1.521792
 H        -0.518101         1.405397         2.999389
 H        -4.106750         0.765605         2.991601
 H        -4.628901         1.611103         1.408901
 H        -3.288895        -2.251418         1.934979
 H        -2.748714        -1.646976         0.253842
 H        -1.442672        -0.601189         2.871288
