19
Iteration:  3240charge 0 multiplicity 1
 O         0.320662        -0.286099         0.509811
 C        -0.863707         0.297434         0.894842
 C        -1.993946         0.685833        -0.032686
 C        -2.443637         0.943448         1.437056
 C        -1.252573         1.705525         1.759502
 C        -3.758799         0.834087         1.951274
 O        -4.101323        -0.580394         1.523617
 C        -2.942006        -1.345976         1.497787
 C        -1.829427        -0.357223         1.906568
 H         0.943979         0.406375        -0.068991
 H        -1.783121         1.572716        -0.577251
 H        -2.487411        -0.122579        -0.640738
 H        -1.054809         2.679591         1.219651
 H        -0.912884         1.772157         2.857497
 H        -3.743655         0.968499         3.014718
 H        -4.555613         1.474140         1.530333
 H        -3.224245        -2.129836         2.268911
 H        -2.838929        -1.999506         0.590190
 H        -1.511773        -0.634781         2.899501
