19
Iteration:   517
 O         0.489049        -0.059207         0.427445
 C        -0.770823         0.315791         0.930448
 C        -1.963733         0.838377         0.101533
 C        -2.425122         0.887775         1.577216
 C        -1.048647         1.532615         1.887712
 C        -3.929331         0.893251         1.895071
 O        -4.223241        -0.537752         1.506358
 C        -3.078723        -1.393504         1.313817
 C        -1.889651        -0.548911         1.834273
 H         0.426089        -1.067635         0.519277
 H        -1.751945         1.796863        -0.349723
 H        -2.386986         0.202054        -0.651334
 H        -0.788110         2.505319         1.584105
 H        -0.651050         1.309514         2.943955
 H        -4.238517         1.082627         2.884855
 H        -4.458882         1.529032         1.230677
 H        -3.221118        -2.349467         1.922838
 H        -2.998680        -1.620754         0.189248
 H        -1.575503        -0.846297         2.903133
