19
Iteration:   709
 O         0.400594        -0.101314         0.653834
 C        -0.846780         0.295949         0.863605
 C        -1.871641         0.993606         0.053624
 C        -2.454261         0.910311         1.554807
 C        -0.947187         1.409721         1.908869
 C        -3.956822         0.840720         1.810330
 O        -4.193659        -0.609106         1.780654
 C        -3.080405        -1.282049         1.221705
 C        -1.886173        -0.514090         1.601923
 H         0.420309        -0.909141         0.306267
 H        -1.602470         2.039415        -0.241388
 H        -2.348069         0.310961        -0.726718
 H        -0.636633         2.335896         1.311060
 H        -0.626964         1.090258         2.839211
 H        -4.304681         1.123880         2.737550
 H        -4.514012         1.324223         0.962317
 H        -3.167891        -2.275550         1.644783
 H        -3.157434        -1.337556         0.097801
 H        -1.520217        -0.894610         2.557010
