19
Iteration:  1419
 O         0.390876        -0.211385         0.400899
 C        -0.786047         0.376516         0.936555
 C        -1.977979         0.887091         0.015741
 C        -2.447129         0.877985         1.554313
 C        -1.082814         1.489964         2.111811
 C        -3.796447         0.856723         2.022002
 O        -4.245463        -0.517691         1.377436
 C        -3.045783        -1.343484         1.276121
 C        -1.809001        -0.493145         1.707859
 H         0.795624        -0.567678         1.094995
 H        -1.985008         1.815940        -0.511600
 H        -2.553869         0.169156        -0.611886
 H        -0.951283         2.676049         1.920546
 H        -0.775644         1.169903         3.132461
 H        -4.054674         0.708425         3.067006
 H        -4.238922         1.729554         1.548901
 H        -3.184672        -2.225319         2.013972
 H        -3.055155        -1.659402         0.250541
 H        -1.646492        -0.682707         2.734967
