19
Iteration:  4316charge 0 multiplicity 1
 O         0.414844        -0.200261         0.593678
 C        -0.827684         0.282090         0.947801
 C        -1.835377         0.880417        -0.030714
 C        -2.574553         0.939137         1.364741
 C        -1.023122         1.640841         1.704496
 C        -4.053655         0.705182         1.723438
 O        -4.091762        -0.652196         2.047602
 C        -3.020519        -1.324359         1.322295
 C        -1.915384        -0.414298         1.817778
 H         0.511036         0.049172        -0.250211
 H        -1.543951         1.807788        -0.522951
 H        -2.187155         0.247345        -0.939183
 H        -0.515179         2.561590         1.272876
 H        -0.729812         1.441461         2.808089
 H        -4.432774         1.294750         2.510338
 H        -4.280648         0.959112         0.650394
 H        -3.011079        -2.449155         1.600979
 H        -3.093303        -1.094964         0.201944
 H        -1.551888        -0.408234         2.839623
