19
Iteration:   260charge 0 multiplicity 1
 O         0.365693        -0.351340         0.407872
 C        -0.779021         0.352625         0.889370
 C        -2.006855         0.946150         0.127701
 C        -2.432248         1.009389         1.590805
 C        -0.960286         1.541933         1.875735
 C        -3.998875         0.833833         1.755053
 O        -4.247690        -0.674718         1.471310
 C        -2.948046        -1.382150         1.535308
 C        -1.854695        -0.365850         1.840545
 H         1.329218         0.175902         0.448110
 H        -1.958591         1.996945        -0.462690
 H        -2.643882         0.271762        -0.453266
 H        -0.832469         2.469028         1.297370
 H        -0.560178         1.544990         2.902517
 H        -4.358726         1.044414         2.705265
 H        -4.641578         1.368666         1.065730
 H        -3.012915        -2.104831         2.339619
 H        -2.727424        -1.772183         0.488603
 H        -1.393463        -0.534190         2.825671
