19
Iteration:  1123charge 0 multiplicity 1
 O         0.436764        -0.137340         0.446847
 C        -0.806395         0.279345         0.874315
 C        -1.929157         0.930008         0.064516
 C        -2.438870         0.936474         1.546647
 C        -0.998308         1.461997         2.008642
 C        -3.891766         0.871543         1.959728
 O        -4.270067        -0.522534         1.426135
 C        -3.064459        -1.387703         1.301829
 C        -1.876254        -0.531562         1.744479
 H         0.931634        -0.470939         1.104084
 H        -1.823009         1.978601        -0.270552
 H        -2.459290         0.323997        -0.621813
 H        -0.837540         2.598946         1.972877
 H        -0.809534         1.092789         2.994931
 H        -3.817543         0.871419         3.018635
 H        -4.634429         1.613334         1.589574
 H        -3.295795        -2.407239         1.847678
 H        -3.030020        -1.621070         0.229515
 H        -1.497345        -0.853521         2.753176
