19
Iteration:   476
 O         0.505881        -0.079475         0.630237
 C        -0.782115         0.361308         0.935875
 C        -1.816526         0.825587        -0.068174
 C        -2.484639         0.949925         1.459817
 C        -1.071166         1.473192         1.880339
 C        -3.858849         0.866716         1.955996
 O        -4.202425        -0.526751         1.714788
 C        -3.172135        -1.472675         1.249955
 C        -1.965213        -0.549976         1.666807
 H         0.755569        -0.013896        -0.329853
 H        -1.728159         1.863858        -0.467556
 H        -2.237599         0.146618        -0.737067
 H        -0.742604         2.447845         1.411880
 H        -0.853228         1.257554         3.005176
 H        -3.925623         1.112892         3.066030
 H        -4.578546         1.413427         1.308424
 H        -3.404735        -2.357201         1.903144
 H        -3.333346        -1.755770         0.239613
 H        -1.662432        -0.577154         2.724660
