19
Iteration:  2978
 O         0.360805        -0.285228         0.451680
 C        -0.796826         0.314688         0.893003
 C        -1.974362         0.816634         0.023650
 C        -2.474822         1.095271         1.526745
 C        -1.097719         1.643007         1.768024
 C        -3.993706         0.792974         1.909337
 O        -4.190516        -0.605777         1.403097
 C        -2.894608        -1.487833         1.617105
 C        -1.794611        -0.376580         1.926805
 H         0.923828         0.220789        -0.280738
 H        -1.651576         1.669598        -0.557810
 H        -2.631303         0.021203        -0.577961
 H        -0.847355         2.469865         1.187736
 H        -0.637631         1.722330         2.780273
 H        -4.123318         0.735100         2.999329
 H        -4.674515         1.534492         1.398630
 H        -3.206153        -2.267653         2.375898
 H        -2.699775        -1.841826         0.635275
 H        -1.526565        -0.305485         2.986070
