19
Iteration:  1087
 O         0.492423        -0.090634         0.508825
 C        -0.765509         0.304173         0.945734
 C        -1.882426         0.898829         0.046329
 C        -2.414084         0.896369         1.499271
 C        -1.098825         1.498297         1.986691
 C        -3.840378         0.891294         1.952517
 O        -4.263531        -0.527657         1.620350
 C        -3.141541        -1.392801         1.166872
 C        -1.922461        -0.569404         1.687133
 H         0.564029        -0.975135         0.586255
 H        -1.688338         1.912790        -0.320120
 H        -2.284992         0.277110        -0.796677
 H        -0.947585         2.563055         1.679169
 H        -0.766793         1.342557         2.989682
 H        -3.872237         0.984272         3.091975
 H        -4.666306         1.507574         1.576736
 H        -3.178812        -2.437090         1.589442
 H        -3.062144        -1.500018         0.015678
 H        -1.641786        -0.811493         2.708484
