19
Iteration:  3311charge 0 multiplicity 1
 O         0.408941        -0.085589         0.383295
 C        -0.850644         0.300602         0.927442
 C        -2.024595         0.720576        -0.014306
 C        -2.468075         0.948903         1.473295
 C        -1.115016         1.625877         1.812070
 C        -3.891144         0.888691         1.823376
 O        -4.153989        -0.536602         1.513151
 C        -2.983239        -1.419356         1.640450
 C        -1.710845        -0.496505         1.876954
 H         0.473801        -1.132318         0.313235
 H        -1.974096         1.678412        -0.549438
 H        -2.492108        -0.082106        -0.640235
 H        -1.064120         2.653460         1.395323
 H        -0.967789         1.579853         2.884877
 H        -4.136352         1.009727         2.912459
 H        -4.633613         1.453251         1.267836
 H        -3.094115        -2.083016         2.535497
 H        -2.968324        -2.048217         0.721391
 H        -1.360086        -0.604374         2.938463
