19
Iteration:  3734
 O         0.518256        -0.102606         0.519705
 C        -0.841110         0.332007         0.851294
 C        -1.923994         0.946523        -0.056069
 C        -2.475009         0.916195         1.430724
 C        -1.080379         1.513805         1.803347
 C        -3.955590         0.789950         1.678807
 O        -4.181612        -0.619058         2.054827
 C        -3.062047        -1.355551         1.403165
 C        -1.861718        -0.474195         1.673884
 H         0.676114        -1.022065         0.930428
 H        -1.792021         1.884468        -0.575495
 H        -2.328021         0.200853        -0.811346
 H        -0.805472         2.508340         1.525226
 H        -0.797832         1.350235         2.861350
 H        -4.411749         1.412297         2.431954
 H        -4.498868         1.001318         0.718699
 H        -3.036676        -2.301705         1.910796
 H        -3.266699        -1.597332         0.320519
 H        -1.389957        -0.623733         2.690038
