19
Iteration:  4204charge 0 multiplicity 1
 O         0.198779        -0.271181         0.440168
 C        -0.904500         0.343810         0.880836
 C        -2.023931         0.725679        -0.007549
 C        -2.396419         0.931832         1.604393
 C        -1.160360         1.700160         1.765361
 C        -3.892532         0.759604         1.846191
 O        -4.107813        -0.541747         1.382038
 C        -2.866281        -1.367584         1.581528
 C        -1.687831        -0.402110         1.963549
 H         1.131358         0.142002         0.781501
 H        -1.876676         1.666706        -0.631385
 H        -2.720164         0.042684        -0.391865
 H        -1.023826         2.593848         1.066605
 H        -0.794699         1.861312         2.808472
 H        -4.103320         0.727820         2.934712
 H        -4.436230         1.570674         1.311773
 H        -2.994150        -2.057988         2.429061
 H        -2.786298        -1.932831         0.578518
 H        -1.340862        -0.622862         2.938104
