19
Iteration:   164
 O         0.519676        -0.110092         0.557468
 C        -0.805298         0.231627         0.865391
 C        -1.998999         0.795906        -0.106212
 C        -2.453756         0.909930         1.375711
 C        -1.215803         1.571925         1.852201
 C        -3.794229         0.796397         1.890372
 O        -4.262809        -0.466734         1.695260
 C        -2.980597        -1.396002         1.438716
 C        -1.829306        -0.472003         1.736706
 H         0.779933        -0.858456         1.102045
 H        -1.929596         1.750818        -0.440174
 H        -2.563119         0.159294        -0.723768
 H        -0.912332         2.561054         1.360926
 H        -1.247159         1.476771         2.925139
 H        -3.769247         1.124032         3.031211
 H        -4.420012         1.552307         1.398004
 H        -3.142036        -2.244110         2.069881
 H        -3.032685        -1.657849         0.385156
 H        -1.600691        -0.598192         2.811535
