19
Iteration:  4603charge 0 multiplicity 1
 O         0.556247        -0.065935         0.389159
 C        -0.747221         0.310154         0.907646
 C        -1.929773         0.719959        -0.035278
 C        -2.469024         0.931079         1.435282
 C        -1.026684         1.624688         1.837331
 C        -3.997182         0.843528         1.730669
 O        -4.251034        -0.602779         1.868872
 C        -3.129233        -1.384455         1.445206
 C        -1.865569        -0.511642         1.803524
 H         1.173768        -0.086036         1.074334
 H        -1.743600         1.590236        -0.673232
 H        -2.477985         0.017141        -0.589816
 H        -0.841540         2.670633         1.456601
 H        -0.592356         1.393575         2.840208
 H        -4.390186         1.166810         2.721695
 H        -4.652646         1.302665         0.928087
 H        -3.207589        -2.384530         1.980836
 H        -3.110623        -1.610892         0.377184
 H        -1.728494        -0.473723         2.867941
