19
Iteration:  3460charge 0 multiplicity 1
 O         0.512412        -0.131657         0.478500
 C        -0.775277         0.293998         0.813432
 C        -2.003783         0.833008        -0.019059
 C        -2.444124         0.929496         1.523287
 C        -1.118327         1.566685         1.863650
 C        -3.956553         0.917910         1.723696
 O        -4.121936        -0.573730         1.914353
 C        -3.075776        -1.461941         1.386916
 C        -1.856003        -0.472796         1.672326
 H         0.784764        -0.542609         1.258559
 H        -2.009915         1.730551        -0.758660
 H        -2.419432         0.015674        -0.520539
 H        -1.075413         2.584459         1.380684
 H        -0.764883         1.638500         2.878536
 H        -4.332370         1.444331         2.617008
 H        -4.467811         1.286603         0.774927
 H        -2.880148        -2.329325         2.058922
 H        -3.323780        -1.854170         0.370118
 H        -1.659263        -0.676457         2.692335
