19
Iteration:   723charge 0 multiplicity 1
 O         0.561324        -0.114611         0.527175
 C        -0.795594         0.247972         0.907897
 C        -1.952225         1.012084         0.061536
 C        -2.426440         1.003276         1.512672
 C        -1.039640         1.440785         1.951780
 C        -3.930923         0.818335         1.791576
 O        -4.237356        -0.579044         1.773708
 C        -3.148225        -1.369691         1.178964
 C        -1.886129        -0.555936         1.704278
 H         0.638137        -1.202153         0.445835
 H        -1.664358         2.048104        -0.388674
 H        -2.552940         0.444278        -0.648754
 H        -0.725158         2.497426         1.792345
 H        -0.697837         1.389236         3.053709
 H        -4.195069         1.255273         2.789687
 H        -4.506890         1.327580         1.026234
 H        -3.164336        -2.348110         1.609198
 H        -3.288139        -1.426545         0.101419
 H        -1.539693        -0.760140         2.709431
