19
Iteration:  4867
 O         0.553897        -0.035417         0.547139
 C        -0.765214         0.325705         0.855304
 C        -1.923740         0.929247        -0.051181
 C        -2.462620         0.975182         1.411581
 C        -1.081579         1.528334         1.822241
 C        -3.826902         0.873759         1.812456
 O        -4.274550        -0.580965         1.659992
 C        -3.144743        -1.578294         1.639980
 C        -1.900558        -0.525259         1.705616
 H         0.469136        -0.620356        -0.257320
 H        -1.659885         1.776119        -0.566631
 H        -2.447475         0.251848        -0.756792
 H        -0.927202         2.550893         1.453268
 H        -0.825055         1.446439         2.908229
 H        -4.101141         0.967869         2.857170
 H        -4.473761         1.434160         1.134766
 H        -3.194937        -2.087009         2.618482
 H        -3.284442        -2.292660         0.878512
 H        -1.422869        -0.616847         2.668726
