19
Iteration:  1919
 O         0.400772        -0.262140         0.441354
 C        -0.778587         0.349618         0.963920
 C        -1.865207         0.956169         0.019775
 C        -2.451056         0.949069         1.534677
 C        -1.050239         1.511063         1.975747
 C        -3.983770         0.812025         1.794728
 O        -4.288032        -0.611445         1.822044
 C        -3.040743        -1.344983         1.196756
 C        -1.846193        -0.500216         1.706840
 H         1.233310         0.394864         0.716119
 H        -1.563894         1.916797        -0.464478
 H        -2.158074         0.340382        -0.802918
 H        -0.650036         2.570708         1.699913
 H        -0.779189         1.150348         2.888113
 H        -4.370251         1.123383         2.787788
 H        -4.469069         1.354315         0.960121
 H        -3.108059        -2.335499         1.601493
 H        -3.006865        -1.333121         0.017198
 H        -1.418143        -0.720747         2.684257
