19
Iteration:  2707charge 0 multiplicity 1
 O         0.440923        -0.203419         0.522861
 C        -0.778223         0.354676         0.897072
 C        -1.970833         0.781283        -0.012650
 C        -2.452296         0.968732         1.508823
 C        -1.007278         1.601005         1.881001
 C        -3.909577         0.711519         1.939281
 O        -4.267029        -0.562333         1.467006
 C        -3.056656        -1.334057         1.477234
 C        -1.827317        -0.458774         1.764635
 H         0.786180         0.521443        -0.041465
 H        -1.839225         1.746285        -0.417553
 H        -2.468475         0.094865        -0.710720
 H        -0.825642         2.557671         1.442016
 H        -0.794510         1.300615         2.961278
 H        -3.960341         0.779860         3.041545
 H        -4.646926         1.390242         1.500366
 H        -3.134995        -2.123817         2.228172
 H        -3.002735        -1.682219         0.436470
 H        -1.536543        -0.543970         2.855992
