19
Iteration:  1719
 O         0.344614        -0.309529         0.479508
 C        -0.791780         0.388314         0.858209
 C        -2.005668         0.869709         0.096417
 C        -2.406670         0.884652         1.647907
 C        -1.090176         1.550683         1.949606
 C        -3.889584         0.802484         1.983616
 O        -4.259270        -0.447347         1.316701
 C        -2.949173        -1.403105         1.388069
 C        -1.772719        -0.471018         1.760622
 H         1.076038         0.155619        -0.093916
 H        -2.033343         1.892079        -0.299708
 H        -2.521522         0.209550        -0.675937
 H        -1.193180         2.648582         1.753139
 H        -0.538256         1.492357         2.975492
 H        -4.117816         0.787651         3.050876
 H        -4.406648         1.675411         1.504671
 H        -3.178854        -2.123581         2.259885
 H        -2.801343        -1.964071         0.430514
 H        -1.451528        -0.841750         2.735674
