19
Iteration:   569
 O         0.317578        -0.294140         0.331324
 C        -0.757796         0.265533         0.985402
 C        -1.935171         0.898125         0.045691
 C        -2.491935         1.083681         1.545089
 C        -1.052856         1.525928         2.004316
 C        -3.970965         0.806507         2.033842
 O        -4.137601        -0.520508         1.267097
 C        -2.984296        -1.400295         1.391803
 C        -1.899761        -0.427964         1.871567
 H         1.274588         0.011172         0.838858
 H        -1.656136         1.843298        -0.450354
 H        -2.484709         0.180643        -0.665465
 H        -0.879532         2.548372         1.498690
 H        -0.559291         1.342114         2.950642
 H        -3.817756         0.581185         3.184516
 H        -4.878569         1.387174         1.780270
 H        -3.263491        -2.136816         2.105357
 H        -2.715299        -1.851883         0.408151
 H        -1.459987        -0.603042         2.826652
