19
Iteration:  4400charge 0 multiplicity 1
 O         0.512920        -0.078771         0.520032
 C        -0.778064         0.283268         0.839026
 C        -2.004399         0.596630        -0.009860
 C        -2.494808         0.927129         1.444308
 C        -1.001760         1.628294         1.680037
 C        -3.905294         0.811210         1.969148
 O        -4.258423        -0.555764         1.555950
 C        -3.069592        -1.349773         1.507070
 C        -1.843546        -0.448453         1.880822
 H         1.202344         0.634928         0.745164
 H        -2.022651         1.451553        -0.751691
 H        -2.587362        -0.229373        -0.450756
 H        -1.087383         2.576757         1.175892
 H        -0.531780         1.825304         2.659916
 H        -3.998379         0.843936         3.081879
 H        -4.699630         1.530344         1.635700
 H        -3.332285        -2.163386         2.152776
 H        -2.965750        -1.733917         0.493445
 H        -1.544380        -0.679847         2.912823
