19
Iteration:  1414charge 0 multiplicity 1
 O         0.381474        -0.203222         0.430221
 C        -0.782090         0.378066         0.913601
 C        -2.019969         0.882583         0.003781
 C        -2.423763         0.872214         1.568965
 C        -1.095438         1.476256         2.080018
 C        -3.788947         0.854141         2.002564
 O        -4.252487        -0.494731         1.423477
 C        -3.067241        -1.330818         1.244362
 C        -1.780899        -0.528576         1.703217
 H         1.070980        -0.477165         1.241939
 H        -1.806763         1.908845        -0.456011
 H        -2.438503         0.132424        -0.676267
 H        -1.018288         2.525077         2.003923
 H        -0.992980         1.149538         3.119313
 H        -4.016201         0.782697         3.080606
 H        -4.395940         1.643635         1.503192
 H        -3.126389        -2.099731         1.954836
 H        -3.078721        -1.676672         0.167702
 H        -1.429895        -0.679380         2.790093
