19
Iteration:  3713
 O         0.526454        -0.101816         0.499743
 C        -0.812945         0.274315         0.913881
 C        -1.945545         0.879269        -0.060292
 C        -2.444894         0.948741         1.344325
 C        -1.026483         1.543734         1.778237
 C        -3.999348         0.793255         1.784417
 O        -4.131484        -0.654533         2.015847
 C        -3.110659        -1.371325         1.299153
 C        -1.918030        -0.418419         1.760327
 H         0.827510        -0.263064         1.315191
 H        -1.734648         1.757463        -0.605101
 H        -2.644769         0.256223        -0.765630
 H        -0.576947         2.375029         1.295425
 H        -0.676907         1.532488         2.828555
 H        -4.237462         1.227747         2.754521
 H        -4.675908         1.208849         0.968163
 H        -3.277163        -2.371616         1.687697
 H        -3.076098        -1.492369         0.223297
 H        -1.812793        -0.639148         2.819829
