19
Iteration:  1328
 O         0.400469        -0.180206         0.499009
 C        -0.871548         0.295568         0.903038
 C        -1.860228         1.039000         0.072141
 C        -2.381904         0.917389         1.427098
 C        -1.137848         1.428408         2.124625
 C        -3.848409         0.841209         1.728861
 O        -4.159685        -0.569856         1.876909
 C        -3.140249        -1.382202         1.139684
 C        -1.875621        -0.591491         1.571818
 H         1.038621         0.091053         1.157424
 H        -1.522569         2.072662        -0.234091
 H        -2.347336         0.594275        -0.777415
 H        -0.880068         2.586530         1.730682
 H        -0.944652         1.149183         3.199583
 H        -3.946867         1.186896         2.747716
 H        -4.447199         1.402325         1.058150
 H        -3.105205        -2.399965         1.458385
 H        -3.252115        -1.267974         0.000170
 H        -1.723604        -0.711426         2.644156
