19
Iteration:  2126charge 0 multiplicity 1
 O         0.472944         0.057200         0.470608
 C        -0.801529         0.221980         0.935183
 C        -1.892851         0.872933        -0.036889
 C        -2.403556         0.869801         1.554130
 C        -0.955255         1.428834         1.852698
 C        -3.951305         0.807167         2.032686
 O        -4.311060        -0.475996         1.584997
 C        -3.116017        -1.397637         1.270190
 C        -1.920808        -0.593667         1.734933
 H         1.084151        -0.228443         1.329821
 H        -1.394351         1.752611        -0.394374
 H        -2.304332         0.182141        -0.863618
 H        -0.546755         2.460043         1.413216
 H        -0.793078         1.486485         2.892698
 H        -4.047353         1.036180         3.078583
 H        -4.517462         1.525041         1.436350
 H        -3.527774        -2.289340         1.769246
 H        -3.184955        -1.553563         0.233707
 H        -1.534248        -0.892679         2.697108
