19
Iteration:  1398
 O         0.446632        -0.147384         0.469837
 C        -0.822159         0.273271         0.911184
 C        -1.884392         0.920476         0.105691
 C        -2.472883         0.898000         1.527830
 C        -1.093727         1.445066         1.979798
 C        -3.888986         0.812222         1.955568
 O        -4.226299        -0.456141         1.544483
 C        -3.052511        -1.336454         1.225563
 C        -1.878722        -0.578017         1.661402
 H         1.065756         0.174827         1.244001
 H        -1.824469         1.896445        -0.311207
 H        -2.468772         0.312758        -0.610446
 H        -0.747849         2.452709         1.546147
 H        -0.664740         1.207296         2.975028
 H        -3.875400         0.953534         3.091157
 H        -4.600538         1.564447         1.514438
 H        -3.278939        -2.318393         1.760634
 H        -3.135087        -1.499094         0.159886
 H        -1.543568        -1.016730         2.591196
