19
Iteration:  2491charge 0 multiplicity 1
 O         0.401700        -0.200935         0.553424
 C        -0.894672         0.248136         0.925824
 C        -1.941734         0.983592        -0.002812
 C        -2.415976         0.991658         1.434539
 C        -1.002677         1.484430         1.991193
 C        -3.902789         0.818826         1.805750
 O        -4.197797        -0.644625         1.730706
 C        -3.001921        -1.361100         1.311440
 C        -1.914913        -0.525512         1.716351
 H         0.843858         0.544620         0.015210
 H        -1.461217         1.944529        -0.421051
 H        -2.508646         0.714751        -0.927859
 H        -0.693885         2.392305         1.650284
 H        -0.805690         1.356589         3.082203
 H        -4.202638         1.201832         2.805616
 H        -4.463092         1.350729         1.032845
 H        -3.020271        -2.354009         1.719199
 H        -3.159606        -1.340422         0.198007
 H        -1.564412        -0.689562         2.725098
