19
Iteration:   346charge 0 multiplicity 1
 O         0.468548        -0.034940         0.611978
 C        -0.809143         0.291084         0.900829
 C        -1.966093         0.772866        -0.018536
 C        -2.430052         0.905627         1.478409
 C        -0.967394         1.482498         1.762201
 C        -3.850615         0.785254         1.928817
 O        -4.287852        -0.535039         1.571694
 C        -3.085388        -1.349178         1.385123
 C        -1.929668        -0.461286         1.822526
 H         0.587789        -0.218329        -0.243052
 H        -1.670071         1.830524        -0.357687
 H        -2.398086         0.027959        -0.659593
 H        -0.761829         2.460374         1.338698
 H        -0.579091         1.360833         2.800547
 H        -3.919121         0.938727         3.077367
 H        -4.533572         1.510278         1.392863
 H        -3.140405        -2.281253         2.040869
 H        -3.044526        -1.746989         0.296760
 H        -1.641225        -0.595050         2.868854
