19
Iteration:  3178
 O         0.481170        -0.117990         0.502113
 C        -0.806329         0.281656         0.920873
 C        -1.887188         0.767301        -0.078665
 C        -2.493761         0.893800         1.386393
 C        -1.094498         1.555056         1.765883
 C        -3.943442         0.861895         1.807297
 O        -4.269927        -0.565271         1.851894
 C        -3.037542        -1.424455         1.458348
 C        -1.860602        -0.466304         1.830479
 H         1.019339         0.697506         0.076558
 H        -1.676672         1.679748        -0.720982
 H        -2.240227         0.002198        -0.689084
 H        -0.799504         2.362498         1.107978
 H        -0.786246         1.600581         2.778427
 H        -4.017855         1.382634         2.806915
 H        -4.663782         1.328467         1.104529
 H        -3.039597        -2.278050         2.124816
 H        -2.952476        -1.721311         0.438763
 H        -1.415029        -0.470526         2.834871
