19
Iteration:  4786charge 0 multiplicity 1
 O         0.344530        -0.298841         0.423082
 C        -0.819845         0.342856         0.852770
 C        -1.939200         0.867098        -0.000133
 C        -2.471714         0.956619         1.454742
 C        -1.060422         1.630492         1.870125
 C        -3.964113         0.762146         1.866616
 O        -4.253127        -0.607907         1.498349
 C        -2.883935        -1.345132         1.560108
 C        -1.844602        -0.374818         1.842700
 H         1.092542        -0.200220         1.057731
 H        -1.821390         1.923393        -0.500470
 H        -2.443721         0.115655        -0.604682
 H        -0.746291         2.646683         1.548056
 H        -0.602751         1.378837         2.828064
 H        -4.030857         0.826926         2.957336
 H        -4.758415         1.478468         1.497669
 H        -2.975918        -2.170783         2.290190
 H        -2.643013        -1.786279         0.526717
 H        -1.402638        -0.494100         2.882697
