19
Iteration:  1455
 O         0.332182        -0.122315         0.375451
 C        -0.842968         0.235097         0.996981
 C        -1.963365         1.002053         0.126331
 C        -2.432019         0.931899         1.614853
 C        -0.916957         1.495542         1.926041
 C        -3.978195         0.732159         1.977396
 O        -4.198295        -0.511343         1.199226
 C        -2.993592        -1.319733         1.401795
 C        -1.869371        -0.536187         1.904673
 H         0.364033        -0.993277         0.380734
 H        -1.639852         2.033162        -0.126029
 H        -2.591920         0.513665        -0.586087
 H        -0.543373         2.337312         1.405091
 H        -0.282534         1.329632         2.915429
 H        -4.230625         0.749696         3.097615
 H        -4.486435         1.642216         1.460104
 H        -3.227631        -2.235406         2.059182
 H        -2.716822        -1.760910         0.444980
 H        -1.501067        -0.676247         2.964763
