19
Iteration:  2422
 O         0.533772         0.034557         0.492384
 C        -0.788313         0.262121         0.911931
 C        -1.956073         0.858328        -0.023557
 C        -2.464465         0.904646         1.460444
 C        -0.984463         1.390703         1.949610
 C        -3.925940         0.806111         2.036380
 O        -4.227191        -0.495092         1.526912
 C        -3.094495        -1.369455         1.311502
 C        -1.946393        -0.515898         1.747801
 H         0.623527        -1.026352         0.625942
 H        -1.870953         1.848736        -0.472000
 H        -2.389623         0.284342        -0.809168
 H        -0.751988         2.432052         1.600106
 H        -0.667223         1.216409         2.942848
 H        -3.859453         1.021759         3.121631
 H        -4.730530         1.394794         1.583979
 H        -3.303239        -2.294121         1.912103
 H        -2.939589        -1.575882         0.213900
 H        -1.758049        -0.675795         2.839863
