19
Iteration:  4013
 O         0.400526        -0.170467         0.460326
 C        -0.816966         0.298627         0.965829
 C        -1.877427         0.799225        -0.088539
 C        -2.483029         0.878240         1.355193
 C        -0.981985         1.646112         1.706194
 C        -4.000874         0.774049         1.702357
 O        -4.167087        -0.652749         1.954420
 C        -3.026314        -1.342471         1.498123
 C        -1.895025        -0.404276         1.894568
 H         0.892455         0.630348         0.107004
 H        -1.735298         1.834348        -0.520508
 H        -2.350658         0.143322        -0.835022
 H        -0.723279         2.560062         1.208445
 H        -0.886381         1.626799         2.788441
 H        -4.358857         1.395581         2.554268
 H        -4.581910         0.973800         0.787557
 H        -2.998686        -2.338130         2.088593
 H        -3.054417        -1.581270         0.397717
 H        -1.624742        -0.591073         3.000011
