19
Iteration:   441
 O         0.493853        -0.295190         0.593162
 C        -0.797002         0.344177         0.866148
 C        -1.941211         0.893339        -0.057686
 C        -2.491873         0.974405         1.408011
 C        -1.100285         1.474079         1.868118
 C        -3.956208         0.840221         1.877215
 O        -4.209911        -0.589365         1.824540
 C        -3.053154        -1.317336         1.230951
 C        -1.804115        -0.485763         1.736918
 H         1.249237         0.503877         0.699251
 H        -1.818378         1.877937        -0.426558
 H        -2.375581         0.209621        -0.799275
 H        -0.783055         2.492795         1.744482
 H        -0.972484         1.294693         3.022112
 H        -4.122610         1.298390         2.847632
 H        -4.648073         1.348193         1.219553
 H        -3.244193        -2.406137         1.477457
 H        -3.176700        -1.153590         0.173851
 H        -1.590060        -0.715571         2.810934
