19
Iteration:  4160
 O         0.436895        -0.100868         0.323893
 C        -0.846389         0.306822         0.929049
 C        -2.022988         0.747660        -0.032450
 C        -2.481474         0.956806         1.470362
 C        -1.021314         1.602767         1.806984
 C        -3.980902         0.718806         1.848402
 O        -4.257435        -0.634885         1.491955
 C        -2.913967        -1.291017         1.673741
 C        -1.822384        -0.369961         1.920734
 H         0.777012        -0.991199         0.882512
 H        -1.765308         1.658093        -0.633574
 H        -2.389587        -0.050063        -0.658675
 H        -0.832318         2.662319         1.424590
 H        -0.541887         1.499398         2.815464
 H        -3.995539         1.110463         2.923404
 H        -4.696609         1.323824         1.240654
 H        -3.039642        -1.991779         2.505734
 H        -2.542773        -1.816334         0.704848
 H        -1.445390        -0.405929         2.929815
