19
Iteration:  3614charge 0 multiplicity 1
 O         0.387957        -0.254595         0.439943
 C        -0.827168         0.255699         0.849946
 C        -2.102740         0.819732         0.132413
 C        -2.468087         0.946067         1.569920
 C        -1.104128         1.657240         1.835763
 C        -3.879965         0.812901         1.903451
 O        -4.093456        -0.548993         1.320983
 C        -2.939575        -1.388899         1.547623
 C        -1.775500        -0.407196         1.892755
 H         0.443874        -0.105676        -0.425361
 H        -1.925115         1.779935        -0.448921
 H        -2.645535        -0.034802        -0.343234
 H        -1.026219         2.579752         1.291443
 H        -0.777215         1.650699         2.901573
 H        -4.040524         0.906906         3.000168
 H        -4.597677         1.540226         1.421341
 H        -2.970122        -1.862323         2.534327
 H        -3.043156        -2.135828         0.756558
 H        -1.624113        -0.525261         2.947745
