19
Iteration:  4826charge 0 multiplicity 1
 O         0.419082        -0.166354         0.488861
 C        -0.874908         0.294166         0.918126
 C        -2.011808         0.665895         0.022187
 C        -2.458162         0.957121         1.525519
 C        -1.150828         1.668838         1.743600
 C        -3.884240         0.828881         1.961954
 O        -4.218664        -0.543636         1.557550
 C        -2.894755        -1.312604         1.315478
 C        -1.782006        -0.455790         1.921788
 H         0.545923        -1.049246         1.022128
 H        -1.894153         1.618354        -0.535886
 H        -2.428865        -0.059884        -0.674004
 H        -0.965067         2.551301         1.119906
 H        -0.695327         1.662240         2.740077
 H        -3.803650         1.037338         3.061657
 H        -4.545956         1.441057         1.375839
 H        -3.030550        -2.336157         1.643055
 H        -2.804239        -1.424968         0.223747
 H        -1.572592        -0.547785         2.979023
