19
Iteration:  4772charge 0 multiplicity 1
 O         0.385412        -0.154210         0.343583
 C        -0.814940         0.283509         0.919734
 C        -1.951685         0.843667        -0.042727
 C        -2.507098         1.006424         1.449610
 C        -0.978037         1.407860         1.867793
 C        -3.976636         0.791745         1.860976
 O        -4.141711        -0.609796         1.491765
 C        -2.970375        -1.371813         1.606473
 C        -1.921719        -0.328036         1.892134
 H         1.125976         0.096160         1.033254
 H        -1.580312         1.804733        -0.543588
 H        -2.538246         0.237365        -0.787310
 H        -0.805935         2.443929         1.573905
 H        -0.834810         1.270812         2.934932
 H        -4.112259         1.020115         2.965838
 H        -4.714218         1.320413         1.266359
 H        -3.038198        -2.016104         2.495094
 H        -2.897557        -2.000904         0.655390
 H        -1.725941        -0.270172         2.980052
