19
Iteration:   730charge 0 multiplicity 1
 O         0.612142        -0.120468         0.466270
 C        -0.739998         0.284106         0.945272
 C        -1.961574         0.976784         0.023120
 C        -2.429149         0.933800         1.469068
 C        -1.070886         1.493995         2.040839
 C        -3.918623         0.864164         1.826645
 O        -4.255995        -0.586820         1.774875
 C        -3.128841        -1.362660         1.186355
 C        -1.940045        -0.553070         1.691897
 H         0.434563        -1.148567         0.510055
 H        -1.620487         1.958092        -0.241121
 H        -2.694641         0.396046        -0.609736
 H        -0.722981         2.505670         1.640634
 H        -0.784639         1.131012         2.971647
 H        -4.150132         1.214619         2.782535
 H        -4.441108         1.405086         0.984447
 H        -3.259573        -2.337949         1.682093
 H        -3.091506        -1.447034         0.055780
 H        -1.758116        -0.715765         2.774680
