19
Iteration:    15
 O         0.491878         0.012601         0.541834
 C        -0.822878         0.328821         0.908652
 C        -2.034639         0.664683        -0.032417
 C        -2.390200         0.874474         1.428480
 C        -1.082904         1.554703         1.810452
 C        -3.776346         0.879536         1.915239
 O        -4.206460        -0.492205         1.631697
 C        -3.097222        -1.413704         1.381036
 C        -1.920682        -0.537776         1.727163
 H         0.995604        -0.416746         1.398890
 H        -2.136436         1.553060        -0.702994
 H        -2.671956        -0.273978        -0.405977
 H        -0.886476         2.596898         1.419113
 H        -0.675335         1.487300         2.786558
 H        -3.748715         1.043419         3.107064
 H        -4.461800         1.561697         1.292269
 H        -3.143803        -2.323378         2.100358
 H        -3.174097        -1.882849         0.347552
 H        -1.828448        -0.585786         2.812794
