19
Iteration:   992charge 0 multiplicity 1
 O         0.429860        -0.207536         0.461326
 C        -0.757336         0.273841         0.953066
 C        -1.853582         0.893321         0.084628
 C        -2.451688         1.030162         1.456963
 C        -0.960661         1.437854         2.037139
 C        -3.984089         0.772735         1.865731
 O        -4.254364        -0.614756         1.697433
 C        -3.100147        -1.301787         1.225031
 C        -1.923557        -0.457670         1.674294
 H         1.057574         0.666666         0.337295
 H        -1.622373         1.868253        -0.397919
 H        -2.317039         0.311603        -0.675165
 H        -0.383329         2.396620         1.654891
 H        -0.836663         1.269244         3.084364
 H        -4.217844         1.185411         2.826607
 H        -4.603420         1.378888         1.113958
 H        -3.276968        -2.338463         1.636911
 H        -3.205009        -1.434724         0.160182
 H        -1.699429        -0.651904         2.763288
