19
Iteration:  1675charge 0 multiplicity 1
 O         0.545553        -0.131607         0.528730
 C        -0.804179         0.304007         0.889421
 C        -1.882049         0.846154         0.015994
 C        -2.485313         0.945635         1.511795
 C        -1.016142         1.411869         1.885384
 C        -3.917411         0.872664         2.008414
 O        -4.321044        -0.600902         1.549073
 C        -3.037040        -1.337847         1.284581
 C        -1.962248        -0.438135         1.796922
 H         0.756152         0.464460        -0.361645
 H        -1.667733         1.708701        -0.612259
 H        -2.434569         0.148033        -0.694135
 H        -0.457602         2.372636         1.701609
 H        -0.659177         1.123021         3.015509
 H        -3.895289         0.917593         3.090643
 H        -4.720787         1.524310         1.579041
 H        -3.139146        -2.308083         1.842762
 H        -3.055014        -1.594018         0.213382
 H        -1.735627        -0.604598         2.874676
