19
Iteration:  4523
 O         0.436574        -0.235596         0.464246
 C        -0.808725         0.392938         0.910084
 C        -1.930973         0.684947        -0.059295
 C        -2.493540         0.945709         1.428702
 C        -1.128409         1.675180         1.728460
 C        -3.932492         0.791491         1.899911
 O        -4.206750        -0.577272         1.772644
 C        -2.978414        -1.323732         1.350698
 C        -1.814119        -0.433042         1.872605
 H         0.953749        -0.359846         1.187689
 H        -1.866269         1.634829        -0.590361
 H        -2.429982        -0.141611        -0.626805
 H        -0.957621         2.697948         1.313792
 H        -0.944653         1.707994         2.827520
 H        -4.143328         1.139830         2.942169
 H        -4.635933         1.281312         1.104006
 H        -2.968752        -2.227195         1.921040
 H        -2.876237        -1.578995         0.286903
 H        -1.435169        -0.665525         2.872600
