19
Iteration:  2437
 O         0.495151         0.027970         0.519608
 C        -0.785053         0.307852         0.929491
 C        -1.869112         0.842615         0.061743
 C        -2.451335         0.867080         1.515693
 C        -1.105354         1.465791         1.846925
 C        -3.783817         0.832590         1.941986
 O        -4.306283        -0.525486         1.607590
 C        -3.114838        -1.364010         1.229317
 C        -1.944833        -0.558948         1.775364
 H         0.690350        -0.903709         0.184309
 H        -1.502839         1.865135        -0.297725
 H        -2.343019         0.069974        -0.592909
 H        -0.833718         2.369905         1.427906
 H        -0.798005         1.297686         2.924609
 H        -3.812130         0.808418         3.049516
 H        -4.408623         1.676913         1.645413
 H        -3.160797        -2.343806         1.659372
 H        -3.254397        -1.588742         0.172903
 H        -1.616137        -0.711047         2.788330
