19
Iteration:  2616
 O         0.381820        -0.131073         0.453445
 C        -0.824702         0.291847         0.921320
 C        -1.957227         0.820481         0.006440
 C        -2.424353         0.937227         1.469050
 C        -1.083025         1.553420         1.904456
 C        -3.805851         0.831275         1.950583
 O        -4.255857        -0.509340         1.476962
 C        -3.031550        -1.427948         1.421540
 C        -1.851049        -0.564189         1.804988
 H         0.938915         0.532442         0.819972
 H        -1.520313         1.704589        -0.426234
 H        -2.509618         0.186154        -0.643003
 H        -0.918896         2.571035         1.510987
 H        -0.812297         1.373783         2.868100
 H        -3.812281         0.867093         3.035685
 H        -4.588581         1.495953         1.541151
 H        -3.219941        -2.364484         2.029403
 H        -2.941340        -1.611896         0.372877
 H        -1.569068        -0.531283         2.857138
