19
Iteration:  4918charge 0 multiplicity 1
 O         0.442416        -0.145698         0.465114
 C        -0.838526         0.277986         0.942022
 C        -1.975535         0.668940         0.034846
 C        -2.459516         0.974926         1.437737
 C        -1.020931         1.658017         1.870694
 C        -3.857345         0.876393         1.833443
 O        -4.191839        -0.616357         1.641770
 C        -3.039768        -1.356319         1.422603
 C        -1.891953        -0.479009         1.839507
 H         0.774981         0.616066         0.119432
 H        -1.996610         1.540899        -0.736297
 H        -2.559154        -0.148633        -0.481031
 H        -0.703027         2.511858         1.281138
 H        -0.699795         1.721045         2.926660
 H        -4.112205         1.041989         2.847883
 H        -4.623104         1.189666         1.082515
 H        -3.069816        -2.321247         1.995637
 H        -2.999214        -1.699729         0.325014
 H        -1.682593        -0.428516         2.965957
