19
Iteration:  1520
 O         0.508773        -0.091898         0.488740
 C        -0.774240         0.274029         0.964226
 C        -1.864358         0.905471         0.039308
 C        -2.434352         0.896172         1.501644
 C        -1.020200         1.507457         1.890680
 C        -3.811008         0.776213         2.019596
 O        -4.288678        -0.534281         1.461581
 C        -3.194354        -1.367312         1.333181
 C        -1.965712        -0.520686         1.795228
 H         0.610563         0.418682        -0.335780
 H        -1.548558         1.900344        -0.326782
 H        -2.376589         0.335373        -0.707717
 H        -0.645704         2.441503         1.501610
 H        -0.608402         1.225569         2.987074
 H        -3.933623         0.778749         3.078025
 H        -4.670695         1.320358         1.564169
 H        -3.342560        -2.353529         1.905283
 H        -3.066711        -1.726240         0.322273
 H        -1.834970        -0.691677         2.881470
