19
Iteration:  3559
 O         0.413309        -0.240190         0.493267
 C        -0.874941         0.248304         0.902416
 C        -2.076994         0.861642         0.073210
 C        -2.472249         0.989709         1.541822
 C        -1.015762         1.594748         1.810196
 C        -4.000420         0.797367         1.864197
 O        -4.114227        -0.600993         1.467511
 C        -2.920640        -1.377651         1.523364
 C        -1.814235        -0.375203         1.845300
 H         0.508636         0.142184        -0.348348
 H        -1.747204         1.763767        -0.577598
 H        -2.800828         0.244333        -0.462719
 H        -0.593301         2.473509         1.305064
 H        -0.558412         1.424893         2.790348
 H        -4.171857         1.011355         2.944832
 H        -4.646065         1.416674         1.194832
 H        -2.997690        -2.149422         2.322811
 H        -2.988120        -1.897392         0.545354
 H        -1.353319        -0.556359         2.790742
