19
Iteration:  1118charge 0 multiplicity 1
 O         0.433943        -0.133502         0.454973
 C        -0.782862         0.307720         0.874082
 C        -1.941578         0.888248         0.048476
 C        -2.431101         0.929282         1.559573
 C        -1.043220         1.461139         2.053703
 C        -3.908437         0.864898         1.942372
 O        -4.270222        -0.504824         1.461183
 C        -3.092613        -1.345159         1.284317
 C        -1.835674        -0.551736         1.680811
 H         0.963712        -0.690994         1.204678
 H        -1.811173         1.896071        -0.353022
 H        -2.437286         0.202652        -0.711415
 H        -0.907367         2.516200         1.938297
 H        -0.699793         1.066322         3.063225
 H        -3.771783         0.846545         3.096142
 H        -4.670394         1.548654         1.580420
 H        -3.101837        -2.184007         1.948711
 H        -3.003226        -1.554339         0.189023
 H        -1.425714        -0.794783         2.653808
