19
Iteration:    26charge 0 multiplicity 1
 O         0.561609         0.078194         0.574989
 C        -0.778060         0.296362         0.852779
 C        -2.053539         0.629285        -0.053571
 C        -2.460019         0.892954         1.436772
 C        -1.104402         1.505811         1.778964
 C        -3.771312         0.872868         1.950486
 O        -4.266344        -0.467610         1.669060
 C        -3.146429        -1.410323         1.356087
 C        -1.852029        -0.551087         1.747856
 H         0.965498        -0.399465         1.501226
 H        -1.872342         1.493980        -0.752386
 H        -2.424314        -0.313501        -0.704620
 H        -0.886360         2.479008         1.245630
 H        -0.884443         1.412351         2.820264
 H        -3.817962         1.176622         3.118488
 H        -4.520634         1.640861         1.513424
 H        -3.292212        -2.268045         2.116420
 H        -3.261362        -1.741566         0.276273
 H        -1.406051        -0.783419         2.726516
