19
Iteration:   425
 O         0.372818        -0.250656         0.512973
 C        -0.830277         0.278802         0.958830
 C        -1.888841         0.878414         0.005870
 C        -2.462615         0.948580         1.469584
 C        -1.038543         1.493731         1.927896
 C        -3.951398         0.832044         1.800165
 O        -4.120700        -0.633649         1.843485
 C        -3.000634        -1.270639         1.198273
 C        -1.985371        -0.402368         1.676210
 H         1.219458         0.145975         1.062866
 H        -1.660227         1.759832        -0.696330
 H        -2.435855         0.191468        -0.731468
 H        -0.706259         2.493019         1.506339
 H        -0.612107         1.365129         2.867657
 H        -4.251374         1.194572         2.817316
 H        -4.645907         1.332560         1.085247
 H        -2.935304        -2.184523         1.778463
 H        -3.049733        -1.429664         0.056403
 H        -1.734626        -0.544465         2.718255
