19
Iteration:  1159
 O         0.327287        -0.221822         0.338491
 C        -0.798343         0.329941         0.959499
 C        -1.912778         0.878050         0.180583
 C        -2.439137         0.933120         1.639707
 C        -0.944083         1.508555         2.012714
 C        -3.961372         0.811627         1.937305
 O        -4.239065        -0.479394         1.276011
 C        -3.024166        -1.361683         1.310412
 C        -1.833739        -0.500228         1.818387
 H         0.947371         0.216602         0.796071
 H        -1.761940         1.831360        -0.322856
 H        -2.493371         0.147787        -0.431416
 H        -0.691194         2.518152         1.751820
 H        -0.688018         1.128380         3.132148
 H        -4.234083         0.711007         2.952202
 H        -4.614559         1.543092         1.441684
 H        -3.316511        -2.129578         2.080548
 H        -2.952090        -1.762700         0.304781
 H        -1.314215        -0.889590         2.744697
