19
Iteration:  4588charge 0 multiplicity 1
 O         0.542216        -0.029518         0.492432
 C        -0.730084         0.396997         0.799148
 C        -1.932922         0.728710        -0.086575
 C        -2.443340         0.844901         1.417693
 C        -1.163676         1.473810         1.809442
 C        -3.881240         0.853717         1.824166
 O        -4.287602        -0.517358         1.860950
 C        -3.081617        -1.401024         1.476692
 C        -1.872333        -0.531441         1.724990
 H         1.067559         0.176594         1.275393
 H        -1.933626         1.700356        -0.650716
 H        -2.258890        -0.199950        -0.648716
 H        -0.924028         2.497576         1.492934
 H        -1.048157         1.406888         2.901171
 H        -4.024497         1.533561         2.696269
 H        -4.478608         1.340976         0.935626
 H        -3.122952        -2.152307         2.223241
 H        -3.380292        -1.766052         0.477351
 H        -1.373276        -0.888100         2.660312
