19
Iteration:   989charge 0 multiplicity 1
 O         0.432888        -0.197049         0.473383
 C        -0.773582         0.278052         0.948540
 C        -1.872420         0.882316         0.069480
 C        -2.457174         1.013187         1.464874
 C        -0.945811         1.456114         2.045450
 C        -3.967545         0.784715         1.864248
 O        -4.257662        -0.617106         1.694122
 C        -3.119892        -1.305559         1.217994
 C        -1.908512        -0.448742         1.664091
 H         1.071264         0.499638         0.395103
 H        -1.710809         1.869964        -0.311416
 H        -2.405557         0.284421        -0.714335
 H        -0.349264         2.341365         1.696704
 H        -0.791339         1.304740         3.113059
 H        -4.189683         1.175139         2.816472
 H        -4.493942         1.367187         1.127972
 H        -3.180937        -2.331130         1.614600
 H        -3.164955        -1.503453         0.172191
 H        -1.719635        -0.623978         2.719476
