19
Iteration:  1563
 O         0.423876        -0.225391         0.596917
 C        -0.826913         0.341709         0.845486
 C        -1.972047         0.948740        -0.052154
 C        -2.405883         0.828855         1.495011
 C        -1.124555         1.475779         1.984041
 C        -3.847117         0.848530         1.862238
 O        -4.139917        -0.559331         1.758670
 C        -3.093116        -1.280565         1.206762
 C        -1.871078        -0.565743         1.691634
 H         1.061177         0.378072         0.605280
 H        -1.969604         1.985975        -0.421282
 H        -2.334305         0.339585        -0.834696
 H        -1.089953         2.525360         1.630378
 H        -0.836173         1.315524         3.141376
 H        -3.995043         1.118310         2.880171
 H        -4.402970         1.559084         1.202171
 H        -3.247785        -2.397123         1.451836
 H        -3.111177        -1.331955         0.144030
 H        -1.593752        -0.828038         2.724698
