19
Iteration:  2647charge 0 multiplicity 1
 O         0.393752        -0.172226         0.355022
 C        -0.793234         0.350086         0.916655
 C        -1.998578         0.777006         0.141283
 C        -2.418599         0.990635         1.615314
 C        -1.013349         1.593307         1.893689
 C        -4.001222         0.846875         1.921343
 O        -4.264870        -0.570052         1.380045
 C        -2.904362        -1.412916         1.438328
 C        -1.814238        -0.435004         1.799035
 H         0.587177        -1.008284         1.016036
 H        -1.631907         1.732922        -0.393755
 H        -2.634089         0.131361        -0.523414
 H        -0.902327         2.639510         1.603756
 H        -0.561067         1.406782         2.846494
 H        -4.283891         0.990472         2.975606
 H        -4.669617         1.494521         1.323025
 H        -2.990210        -2.352272         1.998042
 H        -2.781754        -1.855187         0.427683
 H        -1.539309        -0.531542         2.846833
