19
Iteration:  4811
 O         0.340709        -0.283971         0.481940
 C        -0.807763         0.321475         0.961351
 C        -1.991940         0.769524         0.078425
 C        -2.427602         0.938850         1.544697
 C        -1.168517         1.790744         1.737495
 C        -3.852209         0.816968         1.938504
 O        -4.068514        -0.554171         1.548214
 C        -2.971360        -1.401059         1.302979
 C        -1.880215        -0.448145         1.805178
 H         0.743152        -0.807400         1.066786
 H        -1.839680         1.653354        -0.453002
 H        -2.577433        -0.020123        -0.393938
 H        -1.177819         2.677498         1.085589
 H        -0.761689         2.083237         2.745594
 H        -4.141724         0.872237         2.999131
 H        -4.587759         1.513916         1.486753
 H        -3.023040        -2.239234         2.030293
 H        -2.869124        -1.776969         0.302678
 H        -1.587505        -0.720364         2.820628
