19
Iteration:  2630charge 0 multiplicity 1
 O         0.399587        -0.160696         0.379406
 C        -0.853166         0.291033         0.954873
 C        -1.984328         0.867511         0.054710
 C        -2.466547         0.914084         1.554407
 C        -1.056633         1.518784         1.874156
 C        -3.902218         0.765079         1.900799
 O        -4.148015        -0.533401         1.453795
 C        -3.023110        -1.327201         1.387567
 C        -1.869533        -0.444503         1.863166
 H         1.185634        -0.177529         1.061175
 H        -1.927918         1.769034        -0.521573
 H        -2.416675         0.107227        -0.541288
 H        -0.679410         2.445949         1.372498
 H        -0.764547         1.531594         2.975393
 H        -4.037260         0.828582         3.002688
 H        -4.543926         1.506601         1.397891
 H        -3.189827        -2.141997         2.143086
 H        -2.918098        -1.778896         0.402552
 H        -1.536799        -0.715163         2.890348
