19
Iteration:  4248charge 0 multiplicity 1
 O         0.439901        -0.109799         0.531128
 C        -0.830828         0.267524         0.861637
 C        -1.950776         0.712371        -0.008650
 C        -2.453910         0.990023         1.417474
 C        -1.032426         1.611514         1.695216
 C        -3.890257         0.772188         1.973896
 O        -4.287157        -0.590371         1.580084
 C        -3.037067        -1.408525         1.557943
 C        -1.832466        -0.410368         1.808565
 H         0.960387         0.769539         0.366740
 H        -1.773921         1.681630        -0.568540
 H        -2.304012        -0.042643        -0.678455
 H        -0.799363         2.598871         1.204565
 H        -0.691123         1.421583         2.738372
 H        -3.903613         0.797271         3.044960
 H        -4.661132         1.312757         1.394588
 H        -3.214494        -2.147471         2.335110
 H        -2.959416        -1.852803         0.498959
 H        -1.436338        -0.470393         2.812867
