19
Iteration:  4331
 O         0.413237        -0.295453         0.597085
 C        -0.810909         0.317566         0.916487
 C        -1.910428         0.899776        -0.029532
 C        -2.458840         1.024098         1.402591
 C        -1.095159         1.627140         1.822552
 C        -4.028609         0.747456         1.590650
 O        -4.079539        -0.679282         2.051241
 C        -2.985455        -1.312572         1.350537
 C        -1.853149        -0.411255         1.750198
 H         0.633996        -0.125561        -0.458512
 H        -1.665691         1.886784        -0.478400
 H        -2.474840         0.278987        -0.732981
 H        -0.951474         2.560347         1.270551
 H        -0.790380         1.739189         2.836627
 H        -4.509109         1.360997         2.434683
 H        -4.783834         0.826047         0.834594
 H        -2.906757        -2.304469         1.760721
 H        -3.185116        -1.413120         0.300480
 H        -1.653990        -0.642392         2.844635
