19
Iteration:  1397charge 0 multiplicity 1
 O         0.450321        -0.143576         0.468790
 C        -0.823117         0.267244         0.914720
 C        -1.876573         0.923182         0.104757
 C        -2.481836         0.900344         1.525680
 C        -1.085325         1.441633         1.979088
 C        -3.890276         0.819800         1.958075
 O        -4.227273        -0.464662         1.547988
 C        -3.055978        -1.340979         1.223795
 C        -1.885054        -0.580304         1.660886
 H         1.083535         0.207142         1.260860
 H        -1.819210         1.900183        -0.301510
 H        -2.485742         0.321860        -0.604768
 H        -0.730615         2.470441         1.505859
 H        -0.645103         1.226557         2.958173
 H        -3.898459         0.936777         3.081245
 H        -4.568181         1.559395         1.519779
 H        -3.280134        -2.316950         1.759990
 H        -3.143371        -1.468065         0.150563
 H        -1.572476        -0.991285         2.592065
