19
Iteration:  4480charge 0 multiplicity 1
 O         0.281518        -0.267914         0.315761
 C        -0.788672         0.381873         0.890792
 C        -1.954063         0.865766         0.021770
 C        -2.511989         1.026100         1.532659
 C        -1.016381         1.629203         1.853737
 C        -4.014343         0.751640         1.699494
 O        -4.181854        -0.667690         1.562559
 C        -2.884981        -1.372197         1.688295
 C        -1.775988        -0.312879         1.900678
 H         0.587427        -0.995402         0.832759
 H        -1.853430         1.779377        -0.561352
 H        -2.245053        -0.051313        -0.591026
 H        -0.535705         2.564935         1.444585
 H        -0.624456         1.514935         2.919503
 H        -4.377151         0.948044         2.714643
 H        -4.588508         1.190182         0.804738
 H        -3.037689        -2.243791         2.352703
 H        -2.806742        -1.787280         0.650065
 H        -1.428106        -0.295083         2.926820
