19
Iteration:  4782
 O         0.358845        -0.260564         0.414111
 C        -0.841915         0.335037         0.846664
 C        -1.927577         0.863581        -0.009786
 C        -2.462597         0.944257         1.438077
 C        -1.025781         1.564768         1.876634
 C        -4.002092         0.779063         1.857817
 O        -4.226194        -0.604750         1.503563
 C        -2.887072        -1.334455         1.579685
 C        -1.886700        -0.352542         1.860496
 H         1.170406        -0.186024         0.952756
 H        -1.782963         1.841264        -0.469302
 H        -2.528367         0.175269        -0.663777
 H        -0.833920         2.603195         1.600173
 H        -0.663701         1.271219         2.874918
 H        -3.974148         0.742846         2.984153
 H        -4.724492         1.458756         1.440111
 H        -2.962389        -2.137139         2.304603
 H        -2.607646        -1.843559         0.626220
 H        -1.485315        -0.393650         2.861412
