19
Iteration:  2690
 O         0.393981        -0.197694         0.515648
 C        -0.863157         0.273296         0.910537
 C        -1.956457         0.923663         0.020072
 C        -2.519547         0.972826         1.532612
 C        -1.073115         1.547572         1.864181
 C        -3.915014         0.848716         1.929533
 O        -4.177213        -0.560578         1.418275
 C        -2.895297        -1.437388         1.452724
 C        -1.857887        -0.448412         1.868846
 H         0.476779        -0.201193        -0.531008
 H        -1.640502         1.823647        -0.655402
 H        -2.563654         0.142387        -0.533475
 H        -0.730545         2.526835         1.431732
 H        -0.721619         1.393460         2.933503
 H        -4.047645         0.853948         3.035152
 H        -4.646850         1.557195         1.508506
 H        -3.059319        -2.254816         2.179916
 H        -2.825152        -2.046335         0.499272
 H        -1.412291        -0.538857         2.848937
