19
Iteration:  2055
 O         0.290178        -0.252609         0.304646
 C        -0.851568         0.283398         0.992341
 C        -1.962790         1.006772         0.150888
 C        -2.426715         0.967017         1.622428
 C        -0.921378         1.552946         1.905145
 C        -3.921044         0.720744         1.907897
 O        -4.186918        -0.532991         1.308678
 C        -3.003097        -1.366993         1.360327
 C        -1.875587        -0.467274         1.940009
 H         1.031381        -0.257622         1.017234
 H        -1.927676         2.089692        -0.108078
 H        -2.483743         0.372110        -0.579670
 H        -0.612877         2.410279         1.361037
 H        -0.487362         1.621760         2.983624
 H        -4.274787         0.733094         2.968265
 H        -4.607008         1.355531         1.323248
 H        -3.037142        -2.350311         1.960023
 H        -2.721886        -1.718607         0.266308
 H        -1.657537        -0.760530         3.032982
