19
Iteration:  3285charge 0 multiplicity 1
 O         0.364088        -0.177908         0.484476
 C        -0.905827         0.297069         0.886494
 C        -2.054463         0.850976         0.026294
 C        -2.456788         0.980772         1.585710
 C        -0.917875         1.557314         1.736156
 C        -3.963585         0.786545         1.762400
 O        -4.140340        -0.651871         1.490082
 C        -2.920721        -1.358048         1.678181
 C        -1.833093        -0.336898         1.875618
 H         0.352163        -0.674422        -0.476749
 H        -2.000418         1.801665        -0.484344
 H        -2.602809         0.126133        -0.490493
 H        -0.871729         2.577286         1.240256
 H        -0.414893         1.599063         2.733350
 H        -4.387028         0.960630         2.728026
 H        -4.614648         1.296006         1.024735
 H        -2.871380        -2.157439         2.462322
 H        -2.695652        -1.936713         0.770144
 H        -1.510295        -0.362180         2.894379
