19
Iteration:  1102charge 0 multiplicity 1
 O         0.477942        -0.122066         0.462273
 C        -0.774952         0.376283         0.950180
 C        -1.886220         0.876670         0.032886
 C        -2.451658         0.870791         1.548893
 C        -1.144617         1.438509         2.026424
 C        -3.848358         0.778489         2.017857
 O        -4.249702        -0.467233         1.563255
 C        -3.072499        -1.297055         1.186721
 C        -1.851231        -0.506106         1.598400
 H         0.593053        -1.029088         0.998201
 H        -1.788273         1.778104        -0.608389
 H        -2.322707         0.047097        -0.426596
 H        -0.774265         2.478515         1.671846
 H        -0.965943         1.262160         3.124562
 H        -4.138315         0.975951         2.983026
 H        -4.234349         1.584677         1.307788
 H        -3.275583        -2.181549         1.874601
 H        -3.405391        -1.753268         0.282766
 H        -1.648108        -0.888173         2.642759
