19
Iteration:  1302
 O         0.526388        -0.204646         0.454671
 C        -0.783496         0.352515         0.903438
 C        -1.764062         1.001354         0.069386
 C        -2.466437         1.002295         1.522926
 C        -0.999399         1.408542         1.981548
 C        -4.088873         0.789037         1.832847
 O        -4.257615        -0.664059         1.865363
 C        -3.114498        -1.310225         1.112553
 C        -1.951621        -0.429198         1.624004
 H         0.989393        -0.487358         1.174381
 H        -1.585046         2.074271        -0.155130
 H        -2.156388         0.463623        -0.832040
 H        -0.657050         2.323336         1.728227
 H        -0.786232         0.952619         2.995945
 H        -4.446734         1.101056         2.808357
 H        -4.593240         1.314593         0.979460
 H        -2.851380        -2.309408         1.520661
 H        -3.189934        -1.213612         0.017907
 H        -1.672107        -0.807231         2.687463
