19
Iteration:  1850
 O         0.544576        -0.211540         0.528156
 C        -0.726851         0.343176         0.940126
 C        -1.902358         0.865577         0.007560
 C        -2.498572         0.928865         1.479286
 C        -1.084042         1.530314         1.949786
 C        -3.882419         0.795567         1.937914
 O        -4.248168        -0.563863         1.712520
 C        -3.152558        -1.330076         1.162114
 C        -1.870948        -0.493784         1.759157
 H         0.617633         0.210459        -0.286877
 H        -1.671646         1.831530        -0.570810
 H        -2.338108         0.173653        -0.762642
 H        -0.913155         2.560755         1.743928
 H        -0.981108         1.332949         3.083993
 H        -3.956464         1.058684         3.025611
 H        -4.617186         1.428453         1.340346
 H        -3.236494        -2.426319         1.542554
 H        -3.376492        -1.281156         0.075772
 H        -1.517775        -0.876617         2.738048
