19
Iteration:  1491charge 0 multiplicity 1
 O         0.424083        -0.174780         0.441632
 C        -0.822882         0.299964         0.950091
 C        -2.034236         0.882957         0.109681
 C        -2.409431         0.888704         1.602361
 C        -1.084341         1.522470         2.084130
 C        -3.893751         0.826647         1.957743
 O        -4.191595        -0.432737         1.305643
 C        -3.001990        -1.319758         1.391374
 C        -1.771613        -0.563896         1.696580
 H         0.274619        -0.509252        -0.354465
 H        -1.971264         1.799307        -0.516012
 H        -2.612661         0.129619        -0.492609
 H        -0.691795         2.438795         1.696451
 H        -0.736204         1.249643         3.051125
 H        -4.244291         0.860563         3.067391
 H        -4.622083         1.409621         1.320603
 H        -3.145068        -2.004570         2.208373
 H        -2.975325        -1.917820         0.420203
 H        -1.437808        -0.886412         2.735241
