19
Iteration:  1686
 O         0.484249        -0.134897         0.526802
 C        -0.787708         0.250084         0.911456
 C        -1.920341         0.866370         0.005550
 C        -2.451620         1.025637         1.484639
 C        -1.017201         1.467732         1.919888
 C        -3.911623         0.753373         1.997684
 O        -4.240998        -0.478958         1.530843
 C        -3.059076        -1.412074         1.306946
 C        -1.973847        -0.490965         1.765182
 H         0.883183         0.350902        -0.321930
 H        -1.579113         1.821410        -0.396431
 H        -2.474962         0.123373        -0.656692
 H        -0.838494         2.512067         1.488259
 H        -0.679375         1.151290         3.040897
 H        -3.950043         0.759655         3.087082
 H        -4.677780         1.500291         1.643942
 H        -3.129762        -2.293958         2.000099
 H        -2.915470        -1.722428         0.252232
 H        -1.741494        -0.615802         2.846000
