19
Iteration:  1139charge 0 multiplicity 1
 O         0.397973        -0.141722         0.371742
 C        -0.821682         0.259616         0.984076
 C        -1.933513         1.019057         0.123188
 C        -2.420425         0.952563         1.600431
 C        -0.992359         1.412830         1.939473
 C        -3.867473         0.764529         1.946541
 O        -4.232805        -0.492435         1.369530
 C        -3.079965        -1.418684         1.286185
 C        -1.965411        -0.521228         1.839277
 H         1.053669        -0.048339         1.072526
 H        -1.490622         1.946406        -0.236914
 H        -2.493495         0.491493        -0.717565
 H        -0.611851         2.196603         1.339273
 H        -0.543245         1.354016         3.039035
 H        -4.107269         0.777494         3.073154
 H        -4.462406         1.449067         1.361098
 H        -3.134571        -2.179087         2.006307
 H        -2.792802        -1.660549         0.252740
 H        -1.764915        -0.519632         2.909300
