19
Iteration:  4463
 O         0.352768        -0.184614         0.275973
 C        -0.796622         0.335987         0.970513
 C        -1.933793         0.788210         0.038932
 C        -2.497742         0.979345         1.431049
 C        -0.909075         1.646501         1.842353
 C        -4.043670         0.792917         1.799951
 O        -4.197050        -0.687570         1.482568
 C        -2.911028        -1.365458         1.663447
 C        -1.882614        -0.335388         1.891619
 H         0.643952        -0.887585         0.950770
 H        -1.751385         1.718811        -0.571779
 H        -2.533255         0.126434        -0.523204
 H        -0.958110         2.619842         1.398692
 H        -0.614988         1.568520         2.859295
 H        -4.199556         1.059834         2.875564
 H        -4.749163         1.332798         1.230912
 H        -3.039199        -1.826625         2.677038
 H        -2.809767        -2.190426         0.966752
 H        -1.452533        -0.385665         2.929673
