19
Iteration:  2461
 O         0.566527        -0.123032         0.566590
 C        -0.738618         0.377498         0.896730
 C        -1.950792         0.805705         0.012803
 C        -2.487886         0.883478         1.497868
 C        -1.029187         1.543460         1.991485
 C        -3.948794         0.815836         1.925051
 O        -4.240152        -0.515517         1.677697
 C        -3.112661        -1.319112         1.246831
 C        -1.891862        -0.585873         1.657921
 H         0.555809        -0.393301        -0.291054
 H        -1.745760         1.788641        -0.392353
 H        -2.348757        -0.035388        -0.658965
 H        -0.889048         2.585816         1.569476
 H        -0.808433         1.476392         3.085627
 H        -4.215276         1.052537         2.967468
 H        -4.628797         1.468455         1.316542
 H        -3.164517        -2.352010         1.581277
 H        -3.298730        -1.454268         0.185791
 H        -1.421867        -0.883023         2.595236
