19
Iteration:  1831
 O         0.474347        -0.097286         0.575468
 C        -0.806537         0.205527         0.939710
 C        -1.853035         0.870704         0.051661
 C        -2.472774         0.941823         1.476968
 C        -1.041588         1.463269         1.890353
 C        -3.918468         0.852626         2.007686
 O        -4.271939        -0.592423         1.646244
 C        -3.032733        -1.337247         1.206845
 C        -1.965607        -0.475687         1.679072
 H         0.662336         0.310940        -0.308084
 H        -1.574218         1.733599        -0.567985
 H        -2.320921         0.228710        -0.624422
 H        -0.538687         2.392727         1.427555
 H        -0.545785         1.339820         2.783091
 H        -3.896412         0.826211         3.100469
 H        -4.538615         1.644244         1.658321
 H        -3.157737        -2.268328         1.769152
 H        -3.086186        -1.481410         0.067074
 H        -1.824290        -0.660854         2.730922
