19
Iteration:  4696
 O         0.386563        -0.027993         0.482292
 C        -0.876413         0.262199         0.967463
 C        -1.938565         0.715566        -0.042019
 C        -2.461432         0.999658         1.457853
 C        -1.023463         1.560749         1.688920
 C        -3.839865         0.730195         1.983955
 O        -4.228928        -0.584527         1.519747
 C        -3.008009        -1.342105         1.496993
 C        -1.904816        -0.415105         1.830681
 H         0.821039        -0.754564         0.969672
 H        -1.737673         1.692827        -0.609134
 H        -2.427296        -0.091915        -0.690805
 H        -0.639064         2.422115         1.157003
 H        -0.641035         1.496288         2.709654
 H        -3.806531         0.866398         3.063729
 H        -4.484823         1.502510         1.659567
 H        -3.105863        -2.080765         2.323793
 H        -2.914146        -1.845999         0.475757
 H        -1.629345        -0.248998         2.896217
