19
Iteration:  1835charge 0 multiplicity 1
 O         0.505698        -0.116065         0.549425
 C        -0.800023         0.235761         0.967145
 C        -1.858799         0.853670         0.003208
 C        -2.427008         0.957919         1.475946
 C        -1.037663         1.475109         1.909188
 C        -3.938034         0.853528         2.031761
 O        -4.279008        -0.582104         1.670137
 C        -3.036224        -1.343956         1.174720
 C        -1.984783        -0.509401         1.673032
 H         0.738521         0.270085        -0.312856
 H        -1.667594         1.814636        -0.474508
 H        -2.384674         0.132329        -0.685203
 H        -0.606290         2.398770         1.416479
 H        -0.670832         1.459639         3.022367
 H        -3.974996         0.941172         3.131549
 H        -4.694157         1.554698         1.582608
 H        -3.124667        -2.269776         1.677711
 H        -2.980951        -1.501079         0.122776
 H        -1.938106        -0.619777         2.795378
