19
Iteration:  2864
 O         0.491531        -0.135551         0.506373
 C        -0.776419         0.370930         0.883213
 C        -1.899411         0.813809        -0.074079
 C        -2.521681         0.869629         1.375947
 C        -1.157193         1.564703         1.804121
 C        -3.912290         0.824593         1.826858
 O        -4.205879        -0.517534         1.812568
 C        -3.041410        -1.406797         1.425356
 C        -1.916433        -0.582253         1.805331
 H         1.354103         0.243287         0.982533
 H        -1.692612         1.828780        -0.514693
 H        -2.220796         0.114657        -0.754267
 H        -0.903325         2.546755         1.262347
 H        -0.725741         1.504275         2.795378
 H        -3.912777         1.070065         2.909765
 H        -4.644747         1.401708         1.289292
 H        -3.261750        -2.342023         1.850881
 H        -3.048600        -1.312206         0.329527
 H        -1.487749        -0.779725         2.791309
