19
Iteration:  1188charge 0 multiplicity 1
 O         0.356816        -0.225869         0.347770
 C        -0.804054         0.260339         0.954183
 C        -2.021851         0.874010         0.159450
 C        -2.408418         0.870790         1.603393
 C        -1.098848         1.490176         2.048220
 C        -3.846390         0.817506         1.936883
 O        -4.115046        -0.418226         1.278924
 C        -3.034509        -1.306418         1.317118
 C        -1.861237        -0.523711         1.793079
 H         1.016719         0.152556         1.002664
 H        -1.956189         1.903138        -0.255214
 H        -2.667897         0.270434        -0.431355
 H        -1.083391         2.576391         1.745937
 H        -0.797213         1.271439         2.980218
 H        -4.020188         0.621112         3.044364
 H        -4.527760         1.599195         1.501339
 H        -3.249390        -2.023806         2.162171
 H        -2.922017        -1.750081         0.314047
 H        -1.421913        -0.822079         2.743489
