19
Iteration:  3482
 O         0.449147        -0.067688         0.514731
 C        -0.783118         0.279515         0.899338
 C        -1.910325         0.733863        -0.070248
 C        -2.473187         0.899295         1.357604
 C        -1.083832         1.536686         1.729195
 C        -3.900157         0.802503         1.888292
 O        -4.254561        -0.606377         1.877065
 C        -3.077141        -1.289949         1.379590
 C        -1.838821        -0.520831         1.750114
 H         1.132817         0.318263         1.197343
 H        -1.647681         1.792029        -0.470697
 H        -2.335914         0.162117        -0.838648
 H        -0.946963         2.565866         1.321570
 H        -0.800713         1.465221         2.771378
 H        -3.789715         1.255256         2.885055
 H        -4.481371         1.512705         1.261284
 H        -3.250238        -2.246485         1.909412
 H        -3.171951        -1.471806         0.284082
 H        -1.692519        -0.583326         2.809725
