19
Iteration:  4470charge 0 multiplicity 1
 O         0.317777        -0.225610         0.296927
 C        -0.795715         0.372628         0.888288
 C        -1.927998         0.840158         0.075844
 C        -2.511410         0.938523         1.456849
 C        -0.915161         1.635233         1.884543
 C        -4.060332         0.796618         1.753148
 O        -4.191832        -0.702260         1.500605
 C        -2.937173        -1.336191         1.696415
 C        -1.822080        -0.332406         1.876179
 H         0.602920        -0.894618         0.790787
 H        -1.633319         1.588812        -0.639057
 H        -2.452119         0.002364        -0.458983
 H        -0.841595         2.649780         1.346603
 H        -0.547852         1.611044         2.966939
 H        -4.291344         1.135389         2.753063
 H        -4.899728         1.259044         1.176834
 H        -2.769656        -1.971960         2.621392
 H        -2.657715        -1.953945         0.782823
 H        -1.556728        -0.269373         2.912998
