19
Iteration:  1697
 O         0.414321        -0.196487         0.540146
 C        -0.821489         0.286079         0.960955
 C        -1.947616         0.902146         0.040324
 C        -2.433618         0.940415         1.502009
 C        -1.072533         1.522819         1.925641
 C        -3.822398         0.772778         2.000676
 O        -4.197209        -0.497608         1.434842
 C        -3.109263        -1.393474         1.364714
 C        -1.827556        -0.507320         1.705097
 H         0.575147         0.331858        -0.189245
 H        -1.787839         1.880945        -0.422087
 H        -2.498289         0.275293        -0.725033
 H        -0.863637         2.545263         1.518282
 H        -0.762893         1.604179         3.053573
 H        -3.809591         0.824678         3.090207
 H        -4.598889         1.458422         1.579776
 H        -3.289141        -2.265639         2.048309
 H        -3.178268        -1.791900         0.322078
 H        -1.511030        -0.756725         2.731859
