19
Iteration:  4081
 O         0.445477        -0.179694         0.578927
 C        -0.797100         0.280327         0.943174
 C        -1.893983         0.695391        -0.087362
 C        -2.462904         0.985581         1.282112
 C        -1.123093         1.694278         1.670347
 C        -3.917535         0.828508         1.874970
 O        -4.161918        -0.674865         1.943618
 C        -3.067400        -1.406463         1.396848
 C        -1.888986        -0.361685         1.757857
 H         0.875137         0.599007         0.127453
 H        -1.673921         1.604963        -0.583043
 H        -2.377418        -0.077806        -0.767185
 H        -0.695706         2.531404         1.134427
 H        -1.055215         1.700880         2.755639
 H        -3.863291         1.160365         2.969724
 H        -4.736701         1.336288         1.397106
 H        -2.973392        -2.309062         2.009982
 H        -3.107466        -1.786521         0.318402
 H        -1.782632        -0.399818         2.835788
