19
Iteration:  2578charge 0 multiplicity 1
 O         0.557449        -0.079527         0.624763
 C        -0.748698         0.311161         0.861454
 C        -1.965001         0.845482        -0.002107
 C        -2.437821         0.947830         1.425307
 C        -1.052222         1.524330         1.881059
 C        -3.874850         0.790760         1.951772
 O        -4.302235        -0.565411         1.652284
 C        -3.144585        -1.379423         1.341842
 C        -1.856140        -0.522289         1.700721
 H         0.778922        -0.329512        -0.219998
 H        -1.895535         1.882163        -0.547937
 H        -2.594205         0.120366        -0.660591
 H        -0.964147         2.577089         1.620189
 H        -0.586913         1.346131         2.943259
 H        -3.953799         1.061407         3.037163
 H        -4.564293         1.460265         1.422476
 H        -3.258109        -2.383811         1.698644
 H        -3.167801        -1.618562         0.213656
 H        -1.588957        -0.722826         2.750101
