19
Iteration:  4858charge 0 multiplicity 1
 O         0.579882        -0.041944         0.527424
 C        -0.853125         0.338658         0.831870
 C        -1.933578         0.838100        -0.028538
 C        -2.463449         1.012296         1.420622
 C        -1.047218         1.512619         1.844415
 C        -3.894072         0.820670         1.850158
 O        -4.243174        -0.576830         1.627809
 C        -3.089492        -1.506626         1.569033
 C        -1.933301        -0.474451         1.728142
 H         0.625469        -0.976781         0.119736
 H        -1.787131         1.806465        -0.445699
 H        -2.372895         0.055044        -0.623491
 H        -0.765289         2.457461         1.342609
 H        -0.586930         1.438371         2.837763
 H        -3.966100         1.240957         2.904492
 H        -4.716261         1.342948         1.397460
 H        -3.007232        -2.055141         2.504336
 H        -3.239536        -2.164321         0.728278
 H        -1.664822        -0.446638         2.761901
