19
Iteration:  4125charge 0 multiplicity 1
 O         0.572586        -0.001458         0.623098
 C        -0.809068         0.292372         0.878124
 C        -2.104867         0.692964        -0.047122
 C        -2.476968         0.877851         1.368206
 C        -1.165367         1.661242         1.695065
 C        -3.804647         0.829408         1.903636
 O        -4.228795        -0.536390         1.689356
 C        -3.019571        -1.389325         1.539639
 C        -1.803553        -0.548316         1.772367
 H         0.555747        -0.777782        -0.119826
 H        -1.997753         1.594303        -0.615065
 H        -2.478566        -0.166131        -0.687806
 H        -1.174502         2.557095         1.083973
 H        -0.787171         1.786933         2.708776
 H        -3.854324         1.166390         2.990587
 H        -4.483014         1.450228         1.342376
 H        -3.040389        -2.214481         2.241818
 H        -3.170586        -1.875287         0.515169
 H        -1.522433        -0.617090         2.832343
