19
Iteration:  1810
 O         0.446827        -0.160684         0.590065
 C        -0.818631         0.328981         0.882494
 C        -1.985544         0.915172        -0.037759
 C        -2.381431         0.930904         1.507525
 C        -1.042039         1.474101         1.945061
 C        -3.858443         0.780662         1.972341
 O        -4.253235        -0.511163         1.539380
 C        -3.084135        -1.369815         1.322091
 C        -1.855342        -0.569202         1.742455
 H         0.837243         0.140571        -0.359576
 H        -1.924974         1.946012        -0.404479
 H        -2.472514         0.360198        -0.769863
 H        -0.751122         2.587855         1.657252
 H        -0.812166         1.356065         2.953377
 H        -3.949615         0.921858         3.058287
 H        -4.572028         1.411729         1.482694
 H        -3.293751        -2.234352         1.924168
 H        -2.996019        -1.599369         0.224265
 H        -1.522278        -0.748404         2.758486
