19
Iteration:  4599charge 0 multiplicity 1
 O         0.561398        -0.062517         0.408741
 C        -0.730202         0.352506         0.879798
 C        -1.960250         0.718199        -0.051814
 C        -2.438692         0.933627         1.426630
 C        -1.056513         1.610286         1.832647
 C        -3.992035         0.839857         1.755404
 O        -4.267004        -0.574328         1.870764
 C        -3.126325        -1.387751         1.455209
 C        -1.871682        -0.560196         1.790778
 H         1.282604        -0.029943         1.194025
 H        -1.699421         1.582399        -0.712397
 H        -2.446557        -0.075545        -0.694479
 H        -0.872309         2.652382         1.545466
 H        -0.678635         1.335492         2.823512
 H        -4.336011         1.199384         2.745985
 H        -4.590213         1.330974         0.888612
 H        -3.099690        -2.308445         1.993695
 H        -3.190779        -1.712817         0.390732
 H        -1.637248        -0.574688         2.893579
