19
Iteration:  1026
 O         0.419762        -0.226425         0.554344
 C        -0.756810         0.287027         0.919918
 C        -1.898998         0.977711         0.065618
 C        -2.371825         0.905284         1.482099
 C        -1.159785         1.508091         2.052391
 C        -3.837518         0.826415         1.833378
 O        -4.229288        -0.546754         1.723031
 C        -3.089850        -1.335396         1.204283
 C        -1.845074        -0.548285         1.642797
 H         0.470549        -0.026544        -0.437036
 H        -1.707594         2.047092        -0.231092
 H        -2.249983         0.375078        -0.740837
 H        -0.867084         2.570980         1.698075
 H        -1.127606         1.285744         3.141309
 H        -4.170088         1.151257         2.827522
 H        -4.473521         1.270979         0.995479
 H        -3.297613        -2.305792         1.700697
 H        -3.230179        -1.297025         0.134584
 H        -1.537558        -0.870740         2.681210
