19
Iteration:  1354charge 0 multiplicity 1
 O         0.520659        -0.129030         0.469159
 C        -0.750756         0.317471         0.943642
 C        -1.867622         0.936213         0.030678
 C        -2.456565         0.858999         1.499253
 C        -1.048450         1.355981         2.060095
 C        -3.987323         0.852302         1.868272
 O        -4.241547        -0.553738         1.784276
 C        -3.178720        -1.271616         1.147986
 C        -1.862281        -0.564929         1.593193
 H         1.257171         0.362897         0.945617
 H        -1.599994         1.851225        -0.450029
 H        -2.216729         0.244214        -0.772047
 H        -0.874667         2.413859         1.716659
 H        -0.802657         1.177187         3.099334
 H        -4.264463         1.158357         2.942561
 H        -4.609770         1.477047         1.145108
 H        -3.276548        -2.381469         1.446658
 H        -3.250818        -1.247827         0.072349
 H        -1.673001        -0.663949         2.687264
