19
Iteration:  4179charge 0 multiplicity 1
 O         0.306637        -0.245038         0.290197
 C        -0.797902         0.338381         0.890626
 C        -1.986770         0.772449         0.114160
 C        -2.472027         1.029879         1.512085
 C        -1.085957         1.689343         1.789355
 C        -3.976212         0.802869         1.839569
 O        -4.105622        -0.642294         1.427777
 C        -2.925006        -1.451650         1.637598
 C        -1.801767        -0.318084         1.944192
 H         1.063280        -0.494885         0.998841
 H        -1.902727         1.699746        -0.428018
 H        -2.468006        -0.034158        -0.527884
 H        -0.906557         2.589277         1.240578
 H        -0.839162         1.686012         2.835098
 H        -4.219323         0.904597         2.876669
 H        -4.602925         1.335685         1.173304
 H        -2.963101        -2.121618         2.475725
 H        -2.842709        -1.995921         0.703802
 H        -1.654607        -0.443469         3.020388
