19
Iteration:   133charge 0 multiplicity 1
 O         0.355610        -0.196475         0.419679
 C        -0.788339         0.326231         0.980011
 C        -1.805413         0.800268         0.000728
 C        -2.494935         1.019844         1.514622
 C        -0.997897         1.629014         1.826026
 C        -3.997297         0.815370         1.800236
 O        -4.205725        -0.633859         1.761151
 C        -2.955417        -1.404652         1.345381
 C        -1.942931        -0.362435         1.773440
 H         0.515162        -1.134715         0.929841
 H        -1.668181         1.715043        -0.487662
 H        -2.228065        -0.011195        -0.656073
 H        -0.651966         2.612530         1.348770
 H        -0.768195         1.716609         2.859131
 H        -4.295641         1.146603         2.708077
 H        -4.552686         1.251920         0.979109
 H        -2.948118        -2.335511         1.967077
 H        -3.045551        -1.783451         0.355774
 H        -1.636622        -0.486090         2.822196
