19
Iteration:  3472
 O         0.501038        -0.100379         0.508312
 C        -0.828420         0.322159         0.880073
 C        -1.951128         0.796789        -0.063167
 C        -2.457468         0.928804         1.418342
 C        -1.114841         1.598555         1.773575
 C        -3.890233         0.850580         1.822447
 O        -4.201012        -0.549574         1.888456
 C        -3.092674        -1.417275         1.393409
 C        -1.844075        -0.573202         1.724746
 H         1.050252        -0.012892         1.294658
 H        -1.769965         1.751266        -0.612956
 H        -2.461270         0.083256        -0.617388
 H        -0.745758         2.490889         1.242016
 H        -0.816497         1.522356         2.815638
 H        -4.163059         1.252726         2.803027
 H        -4.627276         1.262020         1.070637
 H        -3.200101        -2.403435         1.912977
 H        -3.228876        -1.559485         0.312228
 H        -1.357721        -0.778046         2.645561
