19
Iteration:  4115
 O         0.550527        -0.023716         0.681297
 C        -0.784545         0.303688         0.794780
 C        -2.028010         0.618220        -0.108761
 C        -2.453494         0.858734         1.413716
 C        -1.182132         1.632170         1.638784
 C        -3.864006         0.858483         1.943436
 O        -4.271195        -0.572880         1.759120
 C        -3.044895        -1.361424         1.463566
 C        -1.771335        -0.462784         1.812170
 H         0.829965        -0.416956        -0.320930
 H        -2.005224         1.596112        -0.554356
 H        -2.455125        -0.157739        -0.810915
 H        -0.950227         2.638418         1.246333
 H        -0.871712         1.643010         2.708385
 H        -3.945799         0.973061         3.090211
 H        -4.557908         1.538532         1.454039
 H        -3.075716        -2.236183         2.110272
 H        -3.171776        -1.694215         0.342644
 H        -1.389073        -0.415448         2.809362
