19
Iteration:  4704charge 0 multiplicity 1
 O         0.428212         0.011087         0.466567
 C        -0.829552         0.224260         0.942509
 C        -2.013351         0.652923        -0.020683
 C        -2.441754         0.959336         1.405522
 C        -1.043993         1.585048         1.760328
 C        -3.851389         0.797234         2.014501
 O        -4.239912        -0.531613         1.488785
 C        -3.040329        -1.387651         1.456497
 C        -1.853558        -0.400087         1.878282
 H         0.975967        -0.609929         0.851263
 H        -1.689436         1.392263        -0.695469
 H        -2.593261        -0.147151        -0.542768
 H        -0.764327         2.464352         1.194518
 H        -0.541470         1.514191         2.737046
 H        -3.878593         0.879366         3.141284
 H        -4.609853         1.436995         1.604644
 H        -3.062150        -2.076498         2.322227
 H        -2.995377        -1.921819         0.512944
 H        -1.638454        -0.479720         2.937994
