19
Iteration:  2666charge 0 multiplicity 1
 O         0.353090        -0.197546         0.425837
 C        -0.805681         0.332331         0.947331
 C        -2.015824         0.890139         0.046377
 C        -2.462393         0.966276         1.599078
 C        -1.028723         1.603531         1.919357
 C        -3.882948         0.740637         1.840018
 O        -4.166102        -0.569712         1.407117
 C        -2.958599        -1.328957         1.424807
 C        -1.813306        -0.444157         1.896935
 H         0.083175        -1.146239         0.111650
 H        -2.131852         1.923516        -0.417894
 H        -2.481584         0.021906        -0.582847
 H        -0.811955         2.553903         1.400240
 H        -0.633274         1.555769         3.064499
 H        -4.234158         0.866849         2.909423
 H        -4.538519         1.394555         1.246305
 H        -3.104855        -2.160372         2.129499
 H        -2.864909        -1.939000         0.452852
 H        -1.326695        -0.619639         2.869354
