19
Iteration:  4790charge 0 multiplicity 1
 O         0.331149        -0.326951         0.424073
 C        -0.794692         0.349157         0.879142
 C        -1.955418         0.880126         0.000050
 C        -2.484505         0.982627         1.485096
 C        -1.086242         1.675714         1.852361
 C        -3.928706         0.754347         1.879626
 O        -4.260141        -0.611985         1.491993
 C        -2.898488        -1.371409         1.520481
 C        -1.792833        -0.388486         1.836652
 H         1.026851        -0.194914         1.175128
 H        -1.854028         1.785982        -0.478045
 H        -2.390275         0.081101        -0.611758
 H        -0.729708         2.638080         1.461935
 H        -0.618760         1.499423         2.849979
 H        -4.057153         0.930736         2.976889
 H        -4.702314         1.404233         1.488958
 H        -2.995865        -2.169780         2.262908
 H        -2.801316        -1.733240         0.536690
 H        -1.397893        -0.522292         2.828554
