19
Iteration:  4332charge 0 multiplicity 1
 O         0.409858        -0.298522         0.595037
 C        -0.796072         0.319740         0.907082
 C        -1.917502         0.896768        -0.028857
 C        -2.452063         1.030396         1.398088
 C        -1.100834         1.621927         1.837375
 C        -4.023630         0.750472         1.602347
 O        -4.083404        -0.675454         2.046857
 C        -2.981539        -1.321976         1.355814
 C        -1.857279        -0.409782         1.739708
 H         0.637269        -0.143851        -0.412580
 H        -1.712776         1.897185        -0.517195
 H        -2.455031         0.262256        -0.711771
 H        -1.015734         2.556272         1.292897
 H        -0.802789         1.760498         2.837483
 H        -4.524830         1.373786         2.431847
 H        -4.761072         0.823961         0.789376
 H        -2.906275        -2.284963         1.774274
 H        -3.156032        -1.417964         0.299838
 H        -1.637321        -0.616819         2.834114
