19
Iteration:   543
 O         0.307584        -0.201972         0.401493
 C        -0.803594         0.294195         0.926630
 C        -2.010733         0.913866         0.130124
 C        -2.382122         0.959564         1.616575
 C        -1.050317         1.547934         1.965670
 C        -3.892587         0.739882         1.893896
 O        -4.216800        -0.491471         1.358193
 C        -2.960533        -1.389048         1.372891
 C        -1.833029        -0.455832         1.773026
 H         0.724613        -0.780155         1.243517
 H        -1.884857         1.902276        -0.372879
 H        -2.573498         0.204428        -0.503941
 H        -0.628203         2.483063         1.328734
 H        -0.593635         1.464129         2.992646
 H        -4.149331         0.845258         2.985992
 H        -4.354586         1.554837         1.264966
 H        -3.138106        -2.130988         2.171149
 H        -2.919032        -1.819617         0.386645
 H        -1.412708        -0.665316         2.790768
