19
Iteration:  1044
 O         0.509863        -0.209643         0.611127
 C        -0.807968         0.379618         0.921591
 C        -1.919200         0.945319         0.038493
 C        -2.490180         0.960539         1.545855
 C        -1.022903         1.453436         2.046992
 C        -3.935003         0.895424         1.844970
 O        -4.192734        -0.616244         1.715431
 C        -3.089286        -1.348312         1.127708
 C        -1.902510        -0.532014         1.615232
 H         0.445158        -0.492392        -0.362414
 H        -1.778237         1.861698        -0.514533
 H        -2.576440         0.291447        -0.600370
 H        -0.738054         2.484544         1.648957
 H        -0.520097         1.194415         2.934243
 H        -4.017702         1.171112         2.883431
 H        -4.506999         1.575971         1.227959
 H        -3.109909        -2.257365         1.787615
 H        -3.267390        -1.566218         0.052536
 H        -1.662541        -0.812312         2.642508
