19
Iteration:  2260charge 0 multiplicity 1
 O         0.509734        -0.000707         0.403023
 C        -0.760295         0.251673         0.965393
 C        -1.826752         0.812157         0.036925
 C        -2.437341         0.923706         1.450617
 C        -1.111711         1.456860         1.922525
 C        -3.872325         0.813074         1.985157
 O        -4.270375        -0.524863         1.635213
 C        -3.163574        -1.366822         1.245321
 C        -1.916703        -0.526134         1.717461
 H         1.049644        -0.465856         1.214098
 H        -1.729578         1.878553        -0.393657
 H        -2.312489         0.181311        -0.725629
 H        -0.701167         2.416226         1.581795
 H        -0.843532         1.260694         3.099512
 H        -3.922431         0.926495         3.100881
 H        -4.537527         1.591378         1.573483
 H        -3.326843        -2.319162         1.723495
 H        -3.367473        -1.411631         0.171348
 H        -1.739972        -0.732898         2.755857
