19
Iteration:  3592charge 0 multiplicity 1
 O         0.268210        -0.291194         0.341746
 C        -0.794665         0.350459         0.958094
 C        -1.888282         0.752474         0.024815
 C        -2.502687         0.898206         1.563391
 C        -1.130371         1.766958         1.893090
 C        -3.912151         0.756560         1.901630
 O        -4.124143        -0.532060         1.312821
 C        -2.965922        -1.405705         1.590703
 C        -1.764040        -0.387933         1.992641
 H         0.044583        -0.105102        -0.745485
 H        -1.623540         1.710039        -0.559353
 H        -2.540445         0.004280        -0.482948
 H        -0.856290         2.710933         1.457290
 H        -0.702152         1.614546         2.918218
 H        -4.044012         0.832589         3.014348
 H        -4.586839         1.544212         1.455708
 H        -3.137571        -2.187374         2.345343
 H        -2.612232        -1.845317         0.653825
 H        -1.416325        -0.595756         2.973213
