19
Iteration:  3125charge 0 multiplicity 1
 O         0.398336        -0.295543         0.596441
 C        -0.781810         0.312223         0.926784
 C        -1.879898         0.893879        -0.011946
 C        -2.504540         1.008603         1.394193
 C        -1.052873         1.613336         1.715614
 C        -4.042627         0.766852         1.729953
 O        -4.161719        -0.701705         2.012785
 C        -2.984117        -1.313548         1.377326
 C        -1.863254        -0.394349         1.711182
 H         0.808802         0.008683        -0.296664
 H        -1.489275         1.928332        -0.448645
 H        -2.159497         0.331611        -0.856434
 H        -1.024978         2.625868         1.304329
 H        -0.737669         1.638333         2.726809
 H        -4.533774         1.339953         2.554887
 H        -4.612050         0.930982         0.826776
 H        -2.808253        -2.242383         1.885314
 H        -3.033683        -1.554594         0.291378
 H        -1.554174        -0.420496         2.773132
