19
Iteration:  2177charge 0 multiplicity 1
 O         0.352527        -0.209089         0.395461
 C        -0.825901         0.309906         0.950702
 C        -1.770477         1.024969         0.028911
 C        -2.436545         0.954494         1.446385
 C        -1.155195         1.497618         2.050078
 C        -3.957046         0.811637         1.798791
 O        -4.144940        -0.633544         1.789309
 C        -3.086195        -1.299569         1.227475
 C        -1.824893        -0.542229         1.688408
 H         0.892887        -0.660157         1.153995
 H        -1.611879         2.092245        -0.250294
 H        -2.282817         0.480596        -0.717912
 H        -0.886330         2.556214         1.759919
 H        -0.524205         1.270134         2.915559
 H        -4.119422         1.235728         2.820057
 H        -4.602766         1.201662         0.972391
 H        -3.321680        -2.272776         1.816672
 H        -3.225182        -1.382224         0.106519
 H        -1.632270        -0.838289         2.778954
