19
Iteration:  4788charge 0 multiplicity 1
 O         0.334454        -0.314289         0.421487
 C        -0.806352         0.345760         0.863912
 C        -1.947144         0.874306        -0.000692
 C        -2.478597         0.968672         1.468694
 C        -1.074704         1.655176         1.862125
 C        -3.945584         0.757124         1.872384
 O        -4.259143        -0.610109         1.495010
 C        -2.889263        -1.357590         1.541343
 C        -1.818995        -0.382524         1.839171
 H         1.104862        -0.189803         1.159176
 H        -1.840701         1.858543        -0.485173
 H        -2.409013         0.098810        -0.597754
 H        -0.726896         2.646719         1.509801
 H        -0.598316         1.436316         2.835779
 H        -4.050088         0.881782         2.960215
 H        -4.739226         1.448511         1.505070
 H        -2.986055        -2.174351         2.280832
 H        -2.713411        -1.749927         0.535845
 H        -1.394516        -0.516014         2.857708
