19
Iteration:   274
 O         0.429400        -0.351623         0.430037
 C        -0.830789         0.266701         0.928362
 C        -2.041301         0.967936         0.077372
 C        -2.536769         1.001965         1.530946
 C        -0.934695         1.567862         1.809004
 C        -4.021400         0.739271         1.830479
 O        -4.122595        -0.569071         1.470813
 C        -2.960819        -1.366830         1.494601
 C        -1.881185        -0.372120         1.893463
 H         0.885693         0.370695         0.322220
 H        -1.810555         1.906026        -0.268572
 H        -2.520557         0.308757        -0.700366
 H        -0.456284         2.588979         1.521629
 H        -0.618486         1.354623         2.789559
 H        -4.368815         0.934451         2.919911
 H        -4.587258         1.309060         1.106821
 H        -3.070598        -2.166660         2.177424
 H        -2.893519        -1.894621         0.566285
 H        -1.652416        -0.360545         2.977325
