19
Iteration:  3481charge 0 multiplicity 1
 O         0.455702        -0.069561         0.517329
 C        -0.786332         0.286636         0.899996
 C        -1.915246         0.737694        -0.067935
 C        -2.472063         0.907336         1.362211
 C        -1.084785         1.546883         1.732758
 C        -3.902240         0.802544         1.879604
 O        -4.248594        -0.603943         1.878739
 C        -3.076911        -1.302569         1.383758
 C        -1.840492        -0.533782         1.743437
 H         1.086119         0.263791         1.174905
 H        -1.646190         1.821183        -0.465737
 H        -2.376661         0.138561        -0.834938
 H        -0.924314         2.569059         1.299251
 H        -0.807113         1.453707         2.772223
 H        -3.813112         1.279036         2.882697
 H        -4.466172         1.499076         1.239471
 H        -3.285513        -2.225224         1.913782
 H        -3.183305        -1.473913         0.273794
 H        -1.629870        -0.607977         2.807886
