19
Iteration:   995
 O         0.440156        -0.207196         0.448977
 C        -0.751234         0.273320         0.961862
 C        -1.831439         0.922620         0.088998
 C        -2.448075         1.032088         1.462456
 C        -0.976678         1.427946         2.010189
 C        -3.994462         0.777681         1.848553
 O        -4.253385        -0.607212         1.704821
 C        -3.082093        -1.308130         1.232383
 C        -1.935258        -0.472220         1.697955
 H         0.898096         0.605218         0.303332
 H        -1.520023         1.865560        -0.475137
 H        -2.273081         0.261570        -0.667008
 H        -0.540448         2.366040         1.674423
 H        -0.849751         1.202129         3.113780
 H        -4.254649         1.179046         2.924774
 H        -4.683204         1.340080         1.152426
 H        -3.290363        -2.294768         1.660508
 H        -3.220883        -1.363176         0.071021
 H        -1.690006        -0.693022         2.758998
