19
Iteration:  2499
 O         0.353158        -0.248594         0.489696
 C        -0.857376         0.311969         0.935332
 C        -1.867790         1.032575         0.012158
 C        -2.466938         1.001143         1.495247
 C        -1.057028         1.502153         1.947738
 C        -3.969281         0.772648         1.742156
 O        -4.145856        -0.605210         1.757439
 C        -3.036375        -1.380807         1.306873
 C        -1.866546        -0.535289         1.736386
 H         0.923374         0.507906         0.422084
 H        -1.353399         1.995091        -0.274607
 H        -2.328781         0.470622        -0.779657
 H        -0.494249         2.444019         1.542501
 H        -0.906248         1.288483         3.025585
 H        -4.052628         1.061216         2.813249
 H        -4.616963         1.382256         1.089762
 H        -3.118643        -2.377125         1.790262
 H        -3.056369        -1.419575         0.165917
 H        -1.529741        -0.867614         2.747891
