19
Iteration:  1200
 O         0.343544        -0.165666         0.396448
 C        -0.879098         0.259423         0.911772
 C        -1.926793         0.913477         0.131042
 C        -2.443992         0.958048         1.662396
 C        -1.040540         1.493116         1.961126
 C        -3.884715         0.775722         2.006216
 O        -4.209497        -0.437876         1.271670
 C        -3.051873        -1.376330         1.319614
 C        -1.797449        -0.560240         1.789448
 H         1.167523         0.059347         1.055779
 H        -1.518677         1.846059        -0.278639
 H        -2.400589         0.295055        -0.626857
 H        -0.566782         2.398904         1.549107
 H        -0.801153         1.383069         2.968338
 H        -4.065183         0.821272         3.113152
 H        -4.570395         1.545169         1.547385
 H        -3.276914        -2.257216         2.021488
 H        -3.011455        -1.880552         0.341440
 H        -1.481582        -0.824454         2.824887
