19
Iteration:  4777
 O         0.375793        -0.201256         0.381531
 C        -0.839600         0.314892         0.878673
 C        -1.939228         0.845781        -0.034720
 C        -2.475587         0.964593         1.440714
 C        -0.986059         1.458199         1.873332
 C        -4.010711         0.789706         1.865317
 O        -4.174752        -0.607014         1.501026
 C        -2.923650        -1.343414         1.589258
 C        -1.917623        -0.323390         1.880779
 H         1.187311        -0.075043         0.934392
 H        -1.659766         1.816320        -0.516461
 H        -2.549490         0.294180        -0.720410
 H        -0.907266         2.529323         1.611010
 H        -0.797199         1.217929         2.936733
 H        -3.972733         0.814207         2.948380
 H        -4.739475         1.419929         1.287366
 H        -2.987559        -2.092728         2.418697
 H        -2.739680        -1.939064         0.696903
 H        -1.612493        -0.246081         2.950558
