19
Iteration:  4900
 O         0.515832        -0.076381         0.437343
 C        -0.743540         0.294639         0.897388
 C        -1.920041         0.770455        -0.026806
 C        -2.476799         0.940212         1.438407
 C        -1.127461         1.465068         1.861385
 C        -3.955989         0.878857         1.785238
 O        -4.278190        -0.548438         1.678227
 C        -3.014435        -1.448764         1.554771
 C        -1.857426        -0.444987         1.815383
 H         0.736012         0.472133        -0.260685
 H        -1.642141         1.639841        -0.545678
 H        -2.297210        -0.048740        -0.702595
 H        -0.936214         2.520842         1.595382
 H        -0.859392         1.242133         2.918752
 H        -4.135373         1.227834         2.842668
 H        -4.483727         1.578360         1.134034
 H        -3.145819        -2.138953         2.405027
 H        -3.040160        -2.003116         0.644975
 H        -1.516775        -0.673747         2.813582
