19
Iteration:  2976charge 0 multiplicity 1
 O         0.373310        -0.275075         0.451610
 C        -0.810013         0.298318         0.873793
 C        -1.977060         0.814339         0.022961
 C        -2.477830         1.096298         1.524037
 C        -1.081519         1.621479         1.785063
 C        -4.000293         0.782352         1.901142
 O        -4.202403        -0.596623         1.402180
 C        -2.871528        -1.479205         1.620326
 C        -1.805208        -0.366426         1.937004
 H         0.819977         0.106089        -0.246418
 H        -1.689758         1.651975        -0.562231
 H        -2.598106         0.074986        -0.507255
 H        -0.869933         2.528362         1.165094
 H        -0.648312         1.733089         2.777937
 H        -4.111244         0.746132         2.985187
 H        -4.670672         1.507200         1.418595
 H        -3.153370        -2.263022         2.333214
 H        -2.677886        -1.811992         0.629421
 H        -1.523029        -0.251384         2.972929
