19
Iteration:  4765charge 0 multiplicity 1
 O         0.403980        -0.092820         0.323603
 C        -0.813672         0.229647         0.941721
 C        -1.957556         0.838668        -0.004197
 C        -2.517813         1.044357         1.447367
 C        -1.012121         1.467908         1.866333
 C        -3.910055         0.801126         1.855919
 O        -4.155235        -0.591241         1.482826
 C        -3.017643        -1.420760         1.634083
 C        -1.917087        -0.407112         1.869529
 H         1.008710         0.169788         0.954719
 H        -1.580514         1.792518        -0.547378
 H        -2.373485         0.094908        -0.657613
 H        -0.480268         2.376787         1.440254
 H        -0.692828         1.348148         2.919772
 H        -4.268244         1.119822         2.819498
 H        -4.704516         1.298307         1.204555
 H        -3.124428        -2.074860         2.536565
 H        -2.984933        -2.041232         0.702434
 H        -1.697684        -0.499235         2.983780
