19
Iteration:   785
 O         0.532818        -0.083453         0.535491
 C        -0.801040         0.270322         0.924204
 C        -1.994830         0.953371         0.100798
 C        -2.425162         0.902894         1.513127
 C        -1.016245         1.406379         1.865693
 C        -3.849582         0.844137         1.967741
 O        -4.246186        -0.536909         1.556049
 C        -3.089749        -1.381605         1.209626
 C        -1.936884        -0.435155         1.743624
 H         0.574859        -1.107316         0.922806
 H        -2.030482         1.907782        -0.400715
 H        -2.484755         0.272886        -0.627049
 H        -0.805917         2.450194         1.424002
 H        -0.646943         1.227201         2.820934
 H        -4.013137         0.973216         3.022637
 H        -4.577954         1.549450         1.450951
 H        -3.308289        -2.323691         1.740910
 H        -2.947919        -1.699295         0.124796
 H        -1.645789        -0.754170         2.758961
