19
Iteration:  1968charge 0 multiplicity 1
 O         0.490973        -0.067724         0.496080
 C        -0.770488         0.345225         0.875840
 C        -1.876465         0.859671        -0.025368
 C        -2.467842         0.913969         1.429125
 C        -0.957260         1.431645         1.906133
 C        -3.969386         0.825045         2.024716
 O        -4.295640        -0.550322         1.629192
 C        -3.110086        -1.339369         1.284487
 C        -1.887370        -0.535202         1.726011
 H         0.827255        -0.263470         1.305897
 H        -1.735571         1.730414        -0.662193
 H        -2.392671         0.167718        -0.711571
 H        -0.883276         2.434020         1.605293
 H        -0.586869         1.247344         3.013804
 H        -3.914082         0.967920         3.105973
 H        -4.791637         1.380376         1.567719
 H        -3.180673        -2.364434         1.759597
 H        -3.258004        -1.346650         0.222247
 H        -1.410453        -0.786406         2.733736
