19
Iteration:  1289
 O         0.513897        -0.146328         0.435390
 C        -0.729429         0.247811         0.918944
 C        -1.845439         1.002616         0.067750
 C        -2.451410         0.967283         1.529040
 C        -0.976252         1.469257         2.037935
 C        -4.076348         0.796960         1.819650
 O        -4.267078        -0.658282         1.812554
 C        -3.059210        -1.270164         1.113670
 C        -1.930318        -0.479213         1.645914
 H         0.836780        -0.854173         1.235409
 H        -1.484617         1.891702        -0.438113
 H        -2.389372         0.375100        -0.700791
 H        -0.695429         2.403618         1.763767
 H        -0.641174         1.391256         3.039933
 H        -4.295134         1.211285         2.865588
 H        -4.830781         1.276365         1.104043
 H        -3.239396        -2.370588         1.348863
 H        -3.292900        -1.270844         0.079547
 H        -1.759592        -0.708679         2.744148
