19
Iteration:  1066charge 0 multiplicity 1
 O         0.495987        -0.064044         0.595797
 C        -0.827103         0.214197         0.926375
 C        -1.868578         0.996239         0.029298
 C        -2.468469         0.967056         1.486640
 C        -0.962384         1.368035         1.874509
 C        -3.944203         0.745630         1.931319
 O        -4.291567        -0.585401         1.665772
 C        -3.087299        -1.252764         1.197255
 C        -1.910445        -0.518330         1.752499
 H         0.642396        -0.941614         0.080196
 H        -1.579129         1.945163        -0.405201
 H        -2.445527         0.455687        -0.769052
 H        -0.567446         2.417794         1.594560
 H        -0.865917         1.170982         2.890990
 H        -4.086970         1.063535         2.962639
 H        -4.483314         1.464745         1.313003
 H        -3.063868        -2.346340         1.504357
 H        -3.049245        -1.128696         0.083547
 H        -1.618693        -0.663365         2.796626
