19
Iteration:  3587
 O         0.251911        -0.291679         0.333677
 C        -0.768159         0.403734         0.939566
 C        -1.905820         0.771401         0.022070
 C        -2.438841         0.910543         1.552733
 C        -1.067182         1.740033         1.898477
 C        -3.944895         0.765238         1.902236
 O        -4.172569        -0.591622         1.312813
 C        -2.950518        -1.416181         1.570911
 C        -1.794684        -0.342711         2.025816
 H         0.112932        -0.122638        -0.510669
 H        -1.665357         1.651973        -0.551362
 H        -2.379864        -0.121827        -0.405218
 H        -0.882382         2.745890         1.451442
 H        -0.635847         1.419667         2.832267
 H        -3.999750         0.827859         2.994273
 H        -4.579216         1.502167         1.460795
 H        -3.138371        -2.172599         2.347301
 H        -2.791886        -1.845165         0.553879
 H        -1.536486        -0.453078         3.135254
