19
Iteration:  2328
 O         0.346943        -0.221829         0.366028
 C        -0.843418         0.306397         0.880186
 C        -1.951355         0.885060         0.150800
 C        -2.454233         0.946122         1.655636
 C        -1.023829         1.558298         1.975252
 C        -3.911103         0.800697         1.946258
 O        -4.213027        -0.476385         1.304125
 C        -3.002320        -1.415946         1.366985
 C        -1.809273        -0.507506         1.821342
 H         1.155217        -0.008296         0.762182
 H        -1.912113         1.960066        -0.303028
 H        -2.524350         0.245396        -0.541353
 H        -0.748134         2.549242         1.580610
 H        -0.587820         1.237548         3.086740
 H        -4.149016         0.855265         3.049131
 H        -4.661297         1.460097         1.470913
 H        -3.267300        -2.263308         2.038184
 H        -2.788485        -1.767718         0.339006
 H        -1.384550        -0.688528         2.824498
