19
Iteration:   226charge 0 multiplicity 1
 O         0.374818        -0.190338         0.374591
 C        -0.768997         0.296699         0.955315
 C        -1.958402         0.757259         0.033165
 C        -2.477378         0.930924         1.456865
 C        -1.181353         1.513845         1.880416
 C        -3.865656         0.874902         1.876985
 O        -4.110771        -0.503471         1.524955
 C        -3.004886        -1.356645         1.480189
 C        -1.887105        -0.480903         1.861989
 H         1.237854         0.211276         0.813094
 H        -1.828535         1.817914        -0.536362
 H        -2.426584         0.002152        -0.583276
 H        -0.984328         2.451639         1.419445
 H        -0.948591         1.634397         2.979705
 H        -3.954600         1.027933         2.894686
 H        -4.604720         1.436868         1.296496
 H        -3.201825        -2.282793         2.040705
 H        -2.880999        -1.795025         0.424754
 H        -1.574606        -0.553110         2.913707
