19
Iteration:  2059
 O         0.274033        -0.249000         0.334821
 C        -0.853455         0.286085         0.980544
 C        -1.951881         0.985023         0.163558
 C        -2.441094         0.941148         1.611629
 C        -0.930745         1.525840         1.899365
 C        -3.908628         0.704397         1.934012
 O        -4.171103        -0.527868         1.317026
 C        -3.003109        -1.356187         1.331226
 C        -1.872571        -0.436509         1.928009
 H         1.027915        -0.203492         0.896328
 H        -1.706255         2.036484        -0.184322
 H        -2.559537         0.538180        -0.607908
 H        -0.750846         2.555251         1.377737
 H        -0.579672         1.551880         2.900763
 H        -4.219900         0.762544         2.958708
 H        -4.528795         1.352588         1.279187
 H        -3.088363        -2.225966         2.033553
 H        -2.729009        -1.703047         0.393196
 H        -1.647273        -0.749831         2.931946
