19
Iteration:   978
 O         0.433751        -0.220773         0.533433
 C        -0.813930         0.351878         0.930091
 C        -1.975041         0.946396        -0.007616
 C        -2.434025         0.883611         1.559096
 C        -0.956461         1.477690         2.000504
 C        -3.859186         0.885156         1.828691
 O        -4.270688        -0.595087         1.689069
 C        -3.101963        -1.358372         1.169030
 C        -1.898564        -0.490701         1.690969
 H         1.140577         0.283249         0.719041
 H        -1.847295         1.918716        -0.423920
 H        -2.535307         0.191913        -0.610253
 H        -0.657804         2.540669         1.734855
 H        -0.621234         1.129832         2.979861
 H        -4.113356         1.041295         2.828376
 H        -4.494655         1.432623         1.156036
 H        -2.895676        -2.241808         1.768589
 H        -3.154389        -1.515772         0.136234
 H        -1.631369        -0.793654         2.706256
