19
Iteration:  2009
 O         0.371833        -0.093123         0.400682
 C        -0.839372         0.333728         0.910288
 C        -1.967157         0.897624         0.035577
 C        -2.448346         0.864853         1.545408
 C        -1.113297         1.495598         1.996702
 C        -3.842745         0.878901         1.918676
 O        -4.174132        -0.457263         1.420596
 C        -3.045796        -1.429213         1.431980
 C        -1.811945        -0.574237         1.771668
 H         0.781719        -0.978954         0.792493
 H        -1.724130         1.823476        -0.453208
 H        -2.379853         0.149291        -0.730372
 H        -0.894670         2.488751         1.637406
 H        -0.857385         1.356215         3.069032
 H        -3.814097         0.845258         3.039501
 H        -4.519845         1.647531         1.556929
 H        -3.374592        -2.266306         2.059619
 H        -2.782156        -1.798615         0.353243
 H        -1.443954        -0.771885         2.801676
