19
Iteration:  2012charge 0 multiplicity 1
 O         0.360061        -0.111052         0.395054
 C        -0.853640         0.334649         0.915373
 C        -1.966866         0.874717         0.040143
 C        -2.436893         0.865565         1.577723
 C        -1.123577         1.493398         2.000198
 C        -3.851769         0.850833         1.907027
 O        -4.147778        -0.458810         1.415790
 C        -3.028147        -1.384057         1.423180
 C        -1.817462        -0.563234         1.766836
 H         0.720965        -0.852237         0.715308
 H        -1.856914         1.852225        -0.482231
 H        -2.296512         0.199469        -0.737363
 H        -0.829539         2.438757         1.616040
 H        -0.839418         1.311988         3.118026
 H        -3.864465         0.837295         2.997215
 H        -4.462713         1.663193         1.487343
 H        -3.388463        -2.213781         2.120487
 H        -2.833011        -1.757431         0.375790
 H        -1.474796        -0.730572         2.840870
