19
Iteration:  3759
 O         0.490867        -0.146304         0.425636
 C        -0.825040         0.364970         0.944152
 C        -1.855425         0.846496        -0.042824
 C        -2.478734         0.912716         1.352217
 C        -1.197892         1.600028         1.922149
 C        -3.933300         0.818970         1.687770
 O        -4.115460        -0.574189         1.974929
 C        -3.049771        -1.392694         1.437473
 C        -1.845377        -0.485896         1.710607
 H         0.342342        -0.911558        -0.009072
 H        -1.650279         1.697132        -0.665032
 H        -2.226780         0.077409        -0.841845
 H        -1.063185         2.688569         1.837431
 H        -1.020144         1.435992         2.987945
 H        -4.214660         1.364335         2.641791
 H        -4.683639         1.138764         0.901192
 H        -3.089138        -2.368276         2.024903
 H        -3.262230        -1.705414         0.422475
 H        -1.569261        -0.573480         2.766122
