19
Iteration:  2760charge 0 multiplicity 1
 O         0.482387        -0.031037         0.494470
 C        -0.799917         0.318044         0.920180
 C        -1.921479         0.768579        -0.016075
 C        -2.476461         0.940129         1.488347
 C        -1.099747         1.454526         1.820271
 C        -3.857963         0.851372         1.862815
 O        -4.264353        -0.589284         1.706705
 C        -3.026761        -1.334037         1.307366
 C        -1.872472        -0.465776         1.795263
 H         0.724575        -0.759104         0.977963
 H        -1.920301         1.711841        -0.568034
 H        -2.365526        -0.009657        -0.644082
 H        -0.936271         2.420455         1.335365
 H        -0.633941         1.493246         2.781817
 H        -3.942362         1.126411         2.910174
 H        -4.628783         1.420647         1.329362
 H        -3.086515        -2.273055         1.922997
 H        -3.072577        -1.706900         0.323296
 H        -1.635124        -0.600500         2.876545
