19
Iteration:    51charge 0 multiplicity 1
 O         0.597921        -0.000292         0.488501
 C        -0.726494         0.291982         0.898636
 C        -1.776581         0.748996        -0.147186
 C        -2.475931         0.822458         1.386774
 C        -1.105453         1.538295         1.757971
 C        -3.906945         0.802583         1.985068
 O        -4.372573        -0.538241         1.776101
 C        -3.139642        -1.353874         1.405295
 C        -1.966578        -0.532362         1.759784
 H         1.204626        -0.088111         1.332760
 H        -1.601862         1.751367        -0.633897
 H        -2.246424         0.042770        -0.827936
 H        -1.055420         2.436033         1.184132
 H        -0.653832         1.516855         2.815447
 H        -3.865044         1.149449         3.131248
 H        -4.636163         1.535623         1.572717
 H        -3.185216        -2.238710         2.051177
 H        -3.213749        -1.588713         0.321280
 H        -1.849556        -0.432335         2.862511
