19
Iteration:  1487charge 0 multiplicity 1
 O         0.419897        -0.175714         0.445303
 C        -0.801684         0.306492         0.964796
 C        -2.077990         0.863775         0.131471
 C        -2.401670         0.943752         1.609121
 C        -1.078213         1.530798         2.070598
 C        -3.905818         0.804351         1.958958
 O        -4.140758        -0.465093         1.286664
 C        -3.045139        -1.313389         1.362796
 C        -1.779030        -0.547695         1.705072
 H         0.161340        -0.734263        -0.460276
 H        -2.007204         1.784865        -0.473251
 H        -2.680115         0.168782        -0.403494
 H        -0.634836         2.484434         1.789525
 H        -0.624627         1.129550         3.096648
 H        -4.269040         0.894063         3.001373
 H        -4.486325         1.494764         1.246073
 H        -3.136580        -1.972656         2.312462
 H        -3.011029        -1.886510         0.459559
 H        -1.364321        -0.872772         2.681348
