19
Iteration:  4444
 O         0.387989        -0.120002         0.376438
 C        -0.844782         0.293834         0.866263
 C        -1.991861         0.772017         0.016040
 C        -2.439984         0.965688         1.505127
 C        -1.129539         1.627303         1.739225
 C        -3.865332         0.759577         1.879986
 O        -4.155457        -0.550411         1.403363
 C        -3.038965        -1.420176         1.724951
 C        -1.811779        -0.427946         1.911996
 H         0.950476        -0.494952         1.031626
 H        -1.745937         1.613080        -0.674761
 H        -2.442054        -0.047121        -0.617611
 H        -0.764488         2.438304         1.124370
 H        -0.795701         1.608158         2.774647
 H        -4.068974         0.952700         2.985245
 H        -4.676314         1.432580         1.446758
 H        -3.070356        -2.095325         2.549625
 H        -2.843038        -1.938771         0.796543
 H        -1.466938        -0.296520         2.971557
