19
Iteration:  4665
 O         0.431263        -0.399665         0.441586
 C        -0.781004         0.336791         0.911463
 C        -2.006260         0.892947        -0.030540
 C        -2.485177         0.997274         1.462932
 C        -1.213753         1.733767         1.851292
 C        -3.923346         0.804138         1.871766
 O        -4.187163        -0.637449         1.668989
 C        -2.880744        -1.348704         1.474317
 C        -1.766860        -0.382637         1.681741
 H         0.659077        -0.999654         1.213312
 H        -1.901810         1.914988        -0.543302
 H        -2.649019         0.218475        -0.639325
 H        -1.033098         2.786366         1.565455
 H        -0.913078         1.530258         2.882739
 H        -4.101755         1.103103         2.923956
 H        -4.465524         1.390000         1.080529
 H        -2.909833        -2.089192         2.260580
 H        -2.946174        -2.032241         0.587584
 H        -1.621433        -0.349653         2.818125
