19
Iteration:   510charge 0 multiplicity 1
 O         0.514635        -0.054398         0.439219
 C        -0.751457         0.300846         0.909506
 C        -1.938155         0.819943         0.067024
 C        -2.449565         0.874558         1.553293
 C        -1.084030         1.457879         1.925636
 C        -3.905220         0.822301         1.888082
 O        -4.284539        -0.492680         1.553026
 C        -3.057897        -1.364814         1.307053
 C        -1.876372        -0.485736         1.836072
 H         0.565183        -0.929578         0.303569
 H        -1.837159         1.854409        -0.349488
 H        -2.428297         0.173513        -0.646769
 H        -0.710351         2.481922         1.502408
 H        -0.687892         1.387094         2.957603
 H        -4.262978         1.050626         2.923397
 H        -4.472630         1.527051         1.211837
 H        -3.248260        -2.315166         1.811109
 H        -2.859738        -1.572170         0.284443
 H        -1.652093        -0.711653         2.887619
