19
Iteration:  2933charge 0 multiplicity 1
 O         0.457876        -0.125993         0.498465
 C        -0.875296         0.272480         0.921347
 C        -1.968956         0.783096         0.023116
 C        -2.449188         0.936064         1.532806
 C        -1.117463         1.692509         1.793523
 C        -3.893987         0.830464         1.861887
 O        -4.220312        -0.523395         1.533975
 C        -2.889538        -1.467918         1.478998
 C        -1.862719        -0.465707         1.845147
 H         0.243581        -1.034546        -0.037454
 H        -1.845984         1.656245        -0.612335
 H        -2.596563        -0.120146        -0.409005
 H        -1.075516         2.651438         1.259084
 H        -0.696607         1.728564         2.782673
 H        -3.967830         1.143259         2.937592
 H        -4.566888         1.393200         1.159541
 H        -3.009211        -2.233518         2.287521
 H        -2.873673        -1.744315         0.460075
 H        -1.390192        -0.729167         2.775625
