19
Iteration:  2139
 O         0.514639         0.021825         0.458691
 C        -0.775837         0.276500         0.943261
 C        -1.901427         0.830811        -0.002263
 C        -2.442588         0.897928         1.497420
 C        -1.017277         1.427668         1.939677
 C        -3.877879         0.848628         1.915151
 O        -4.274541        -0.535571         1.674396
 C        -3.192290        -1.325628         1.238948
 C        -1.901459        -0.590338         1.732698
 H         1.049575        -0.345259         1.084091
 H        -1.729436         1.794607        -0.490534
 H        -2.467139         0.123521        -0.712148
 H        -0.739932         2.405434         1.558221
 H        -0.582608         1.093222         2.913161
 H        -4.065218         1.007049         2.977121
 H        -4.556977         1.523832         1.403968
 H        -3.164910        -2.297912         1.627133
 H        -3.200440        -1.494453         0.143547
 H        -1.747036        -0.685184         2.788209
