19
Iteration:  2713charge 0 multiplicity 1
 O         0.450667        -0.184052         0.515175
 C        -0.760283         0.356803         0.902445
 C        -1.966956         0.776891         0.049998
 C        -2.483592         0.882645         1.497833
 C        -1.021387         1.599764         1.843252
 C        -3.896755         0.724189         1.932447
 O        -4.251571        -0.553608         1.494118
 C        -3.081402        -1.314593         1.449906
 C        -1.847869        -0.440170         1.741459
 H         0.955471         0.510349         0.162055
 H        -1.677333         1.714449        -0.570168
 H        -2.510211         0.066683        -0.569059
 H        -0.801358         2.677025         1.562139
 H        -0.752090         1.363131         2.835973
 H        -3.953743         0.756818         3.039733
 H        -4.604999         1.478887         1.552683
 H        -3.113030        -2.167530         2.165128
 H        -3.105065        -1.832701         0.476701
 H        -1.592830        -0.509042         2.786030
