19
Iteration:   528charge 0 multiplicity 1
 O         0.386174        -0.126217         0.437821
 C        -0.863804         0.335186         0.972092
 C        -1.980375         0.874954         0.123812
 C        -2.429377         0.953050         1.637607
 C        -0.960578         1.595316         1.905432
 C        -3.886453         0.924609         1.861851
 O        -4.180985        -0.570226         1.429201
 C        -3.054506        -1.415189         1.323413
 C        -1.849137        -0.607896         1.759146
 H         0.555371        -0.907688         0.766897
 H        -1.750319         1.804234        -0.373160
 H        -2.524831         0.160705        -0.441544
 H        -0.978683         2.538703         1.492213
 H        -0.601125         1.514563         2.994933
 H        -4.092286         1.022282         2.878403
 H        -4.542469         1.483411         1.252203
 H        -3.162723        -2.288912         2.068340
 H        -3.136480        -1.930552         0.286815
 H        -1.423679        -0.880682         2.796210
