19
Iteration:  3834
 O         0.426423        -0.253601         0.511817
 C        -0.872058         0.273270         0.854564
 C        -2.010794         0.744341        -0.103900
 C        -2.505202         0.933517         1.449943
 C        -1.243404         1.605766         1.732609
 C        -3.858749         0.808090         2.021818
 O        -4.161436        -0.501141         1.504905
 C        -2.891103        -1.365316         1.537937
 C        -1.782771        -0.400662         1.892301
 H         1.055629         0.577114         0.446858
 H        -1.935140         1.742563        -0.515614
 H        -2.453840        -0.035813        -0.831280
 H        -0.949840         2.547969         1.236612
 H        -0.776135         1.532957         2.717754
 H        -3.823244         0.791016         3.111627
 H        -4.614740         1.500371         1.594328
 H        -3.068200        -2.030532         2.425482
 H        -2.904078        -1.911402         0.549278
 H        -1.470350        -0.545614         2.970348
