19
Iteration:  1230charge 0 multiplicity 1
 O         0.507565        -0.112125         0.426988
 C        -0.750170         0.325295         0.859340
 C        -1.922422         0.920623         0.129779
 C        -2.480359         0.930142         1.530274
 C        -0.949776         1.454783         2.001276
 C        -3.895419         0.750302         1.959685
 O        -4.299641        -0.560384         1.435722
 C        -3.145906        -1.329892         1.288503
 C        -1.922571        -0.470032         1.756984
 H         0.884801        -0.631591         1.050441
 H        -1.665787         1.915956        -0.313251
 H        -2.356961         0.264237        -0.588717
 H        -0.556022         2.486619         1.635369
 H        -0.788731         1.178835         3.018222
 H        -3.835519         0.807382         3.106159
 H        -4.679789         1.417575         1.554707
 H        -3.270541        -2.104575         1.990133
 H        -3.177147        -1.643044         0.219240
 H        -1.749762        -0.616171         2.802745
