19
Iteration:  1533
 O         0.542248        -0.100051         0.536672
 C        -0.790704         0.242490         0.933295
 C        -1.906274         0.867644         0.023759
 C        -2.438160         0.978518         1.483600
 C        -0.949379         1.444674         1.972685
 C        -3.961094         0.793127         1.964908
 O        -4.313854        -0.528059         1.596411
 C        -3.114763        -1.370478         1.251892
 C        -1.929048        -0.547949         1.670889
 H         0.830330         0.655213        -0.133703
 H        -1.755876         1.793061        -0.571106
 H        -2.352463         0.095907        -0.613348
 H        -0.706069         2.341878         1.471135
 H        -0.795895         1.638426         3.099808
 H        -3.766287         0.845980         3.053689
 H        -4.669677         1.638511         1.716267
 H        -3.184820        -2.258243         1.907835
 H        -3.222673        -1.609085         0.175645
 H        -1.625272        -0.707369         2.755995
