19
Iteration:  2184charge 0 multiplicity 1
 O         0.309346        -0.212099         0.414722
 C        -0.817303         0.303341         0.917217
 C        -1.779564         1.071234         0.088256
 C        -2.447907         0.965613         1.484448
 C        -1.060075         1.497827         1.982277
 C        -3.924129         0.774387         1.735211
 O        -4.154765        -0.666209         1.817049
 C        -3.062098        -1.307688         1.244346
 C        -1.914489        -0.487481         1.710301
 H         0.695663        -0.621400         1.119140
 H        -1.329019         2.066441        -0.194070
 H        -2.175954         0.543271        -0.810437
 H        -0.841653         2.435273         1.577891
 H        -0.828451         1.167421         3.078871
 H        -4.133858         1.233356         2.725546
 H        -4.675883         1.185896         1.066826
 H        -3.139034        -2.324321         1.555268
 H        -3.080770        -1.365376         0.123034
 H        -1.567343        -0.790952         2.709652
