19
Iteration:  4226
 O         0.492721        -0.247115         0.430050
 C        -0.838084         0.322357         0.951206
 C        -2.115231         0.719311         0.024517
 C        -2.514741         0.957089         1.491607
 C        -1.032088         1.643558         1.726979
 C        -3.973905         0.801664         1.985520
 O        -4.129659        -0.569884         1.426485
 C        -2.919780        -1.358426         1.538372
 C        -1.896025        -0.345614         1.891598
 H         1.194484         0.352041         0.531379
 H        -2.007013         1.507732        -0.785475
 H        -2.714205        -0.089203        -0.324183
 H        -0.854694         2.560927         1.085757
 H        -0.500179         1.578185         2.707041
 H        -4.052620         0.591341         3.019574
 H        -4.745362         1.444805         1.504465
 H        -3.140525        -2.010428         2.387932
 H        -2.649468        -1.935276         0.573107
 H        -1.528419        -0.522650         2.873017
