19
Iteration:  2023
 O         0.327302        -0.132863         0.331071
 C        -0.830974         0.289848         0.948587
 C        -1.961182         0.822655         0.083980
 C        -2.414783         0.921463         1.635602
 C        -1.085895         1.488592         1.992706
 C        -3.869681         0.760872         1.920661
 O        -4.150968        -0.479272         1.367151
 C        -2.987451        -1.273611         1.353292
 C        -1.835237        -0.463051         1.809140
 H         0.548451        -0.873894         0.905588
 H        -1.989801         1.877290        -0.242604
 H        -2.421171         0.066936        -0.535514
 H        -0.806523         2.477364         1.692114
 H        -0.677403         1.202491         3.042514
 H        -4.317901         0.926008         2.898435
 H        -4.398107         1.429562         1.220248
 H        -2.976442        -2.057539         2.208464
 H        -3.127294        -1.857730         0.412726
 H        -1.498054        -0.663044         2.884850
