19
Iteration:   270charge 0 multiplicity 1
 O         0.427155        -0.374429         0.414910
 C        -0.824311         0.285989         0.920774
 C        -2.038976         0.971783         0.120589
 C        -2.510311         0.991709         1.540320
 C        -0.942131         1.567671         1.803575
 C        -4.032749         0.759839         1.816050
 O        -4.137488        -0.602842         1.471058
 C        -2.982862        -1.359723         1.515775
 C        -1.869323        -0.342527         1.881828
 H         1.148536         0.472028         0.343038
 H        -1.892636         2.122267        -0.334682
 H        -2.509501         0.288499        -0.583287
 H        -0.496549         2.489302         1.474621
 H        -0.597499         1.339002         2.851892
 H        -4.378068         0.923439         2.769197
 H        -4.589028         1.313987         1.050557
 H        -3.041609        -2.249669         2.207614
 H        -2.874445        -1.918191         0.496000
 H        -1.664979        -0.365447         2.960207
