19
Iteration:  1167charge 0 multiplicity 1
 O         0.356524        -0.258899         0.331520
 C        -0.778499         0.408603         0.932052
 C        -2.009639         0.868179         0.148305
 C        -2.420606         0.925518         1.661779
 C        -1.013823         1.497639         2.070309
 C        -3.917712         0.819548         1.963470
 O        -4.255987        -0.429947         1.242443
 C        -3.028968        -1.422426         1.299526
 C        -1.804564        -0.513551         1.841761
 H         1.084397         0.091509         0.720937
 H        -1.907386         1.779716        -0.466576
 H        -2.448703         0.090877        -0.423523
 H        -0.573220         2.493952         1.832989
 H        -0.791874         1.201958         3.074290
 H        -4.226576         0.817660         3.006944
 H        -4.430266         1.613096         1.349553
 H        -3.153709        -2.254507         2.101387
 H        -2.776480        -1.825349         0.328087
 H        -1.373032        -0.701600         2.870850
