19
Iteration:  2405charge 0 multiplicity 1
 O         0.506847        -0.086983         0.474192
 C        -0.816368         0.327824         0.861050
 C        -1.986716         0.902559         0.066040
 C        -2.435156         0.999825         1.580194
 C        -1.055377         1.460264         1.950654
 C        -3.886976         0.797381         1.956746
 O        -4.316679        -0.537164         1.466027
 C        -3.057322        -1.380990         1.354712
 C        -1.816936        -0.494656         1.689204
 H         0.725586        -1.048499         0.774711
 H        -1.696617         1.766892        -0.643226
 H        -2.625615         0.175554        -0.550097
 H        -0.622884         2.459517         1.798577
 H        -0.766158         1.191142         3.059518
 H        -4.081330         0.587646         3.016555
 H        -4.487244         1.575095         1.463022
 H        -2.974463        -2.111150         2.149408
 H        -3.139761        -1.777179         0.345761
 H        -1.385391        -0.880677         2.631740
