19
Iteration:  3398
 O         0.471915        -0.236634         0.549308
 C        -0.775153         0.360206         0.917993
 C        -1.986111         0.823481        -0.035454
 C        -2.464824         1.000721         1.391424
 C        -1.106663         1.609593         1.818076
 C        -3.936574         0.770936         1.791383
 O        -4.169084        -0.627381         1.858318
 C        -2.984833        -1.344999         1.391214
 C        -1.838052        -0.408387         1.740263
 H         0.414705        -0.556523        -0.285540
 H        -1.950355         1.661910        -0.671481
 H        -2.401279        -0.089481        -0.506499
 H        -0.882850         2.569672         1.359030
 H        -0.965915         1.685840         2.905258
 H        -4.103739         1.199170         2.770358
 H        -4.613859         1.280830         1.116097
 H        -3.065407        -2.274140         1.996106
 H        -3.256254        -1.703765         0.408208
 H        -1.572101        -0.403044         2.822328
