19
Iteration:  2585charge 0 multiplicity 1
 O         0.561071        -0.110467         0.617605
 C        -0.716290         0.351037         0.892611
 C        -1.994773         0.821983        -0.004300
 C        -2.467400         0.899895         1.458440
 C        -1.050782         1.498398         1.877921
 C        -3.893409         0.808272         1.973017
 O        -4.265446        -0.550252         1.611781
 C        -3.161397        -1.335674         1.386979
 C        -1.859457        -0.534639         1.625444
 H         0.928141         0.035141        -0.345585
 H        -1.711049         1.618589        -0.632142
 H        -2.491019         0.196275        -0.653464
 H        -0.982507         2.622556         1.596839
 H        -0.726129         1.366843         2.920295
 H        -3.994020         0.884260         3.070815
 H        -4.690747         1.386833         1.475422
 H        -3.192447        -2.317911         1.942201
 H        -3.178234        -1.421050         0.323130
 H        -1.633410        -0.626089         2.719409
