19
Iteration:  1190charge 0 multiplicity 1
 O         0.350930        -0.221090         0.348829
 C        -0.819833         0.257613         0.946447
 C        -1.999901         0.878692         0.170422
 C        -2.409112         0.877924         1.602043
 C        -1.099362         1.493454         2.020610
 C        -3.857120         0.809256         1.950540
 O        -4.117092        -0.418792         1.281586
 C        -3.052920        -1.304540         1.305209
 C        -1.848309        -0.529535         1.794588
 H         1.018332         0.204863         1.093776
 H        -1.875435         1.880472        -0.247709
 H        -2.667345         0.282716        -0.466179
 H        -0.989903         2.540803         1.746259
 H        -0.807305         1.294748         3.073342
 H        -4.020215         0.664803         3.010743
 H        -4.539345         1.581094         1.518475
 H        -3.218841        -2.072407         2.168175
 H        -2.894991        -1.809399         0.350966
 H        -1.374228        -0.838324         2.768465
