19
Iteration:   481charge 0 multiplicity 1
 O         0.508866        -0.052422         0.611643
 C        -0.752177         0.333380         0.932214
 C        -1.842767         0.808507        -0.058171
 C        -2.483470         0.961838         1.429192
 C        -1.074657         1.479020         1.905588
 C        -3.871098         0.880157         1.956178
 O        -4.236560        -0.541703         1.692406
 C        -3.176938        -1.428822         1.280223
 C        -1.932392        -0.542507         1.698755
 H         0.648031        -0.133826        -0.350937
 H        -1.609040         1.822668        -0.435915
 H        -2.333553         0.046071        -0.784166
 H        -0.595887         2.399025         1.538702
 H        -0.867234         1.121602         2.866670
 H        -3.955104         1.041636         3.059669
 H        -4.618624         1.436723         1.358090
 H        -3.291138        -2.343928         1.846912
 H        -3.154322        -1.772092         0.169618
 H        -1.643650        -0.718600         2.751180
