19
Iteration:  2796charge 0 multiplicity 1
 O         0.459094        -0.222517         0.531272
 C        -0.791633         0.369373         0.883247
 C        -1.848754         0.913796        -0.038545
 C        -2.478819         0.987976         1.472599
 C        -1.162012         1.541262         1.882929
 C        -3.919757         0.789453         1.732942
 O        -4.227234        -0.653136         1.828305
 C        -3.010333        -1.347006         1.410046
 C        -1.840227        -0.439875         1.737926
 H         0.273490        -0.750312        -0.182702
 H        -1.678585         1.918917        -0.308765
 H        -2.318307         0.247153        -0.807934
 H        -1.011468         2.451014         1.342543
 H        -0.828683         1.410694         3.000787
 H        -4.074131         1.196193         2.735978
 H        -4.576855         1.252236         0.994509
 H        -2.885395        -2.246555         1.977439
 H        -3.086320        -1.389467         0.302718
 H        -1.568967        -0.575544         2.832595
