19
Iteration:  1499charge 0 multiplicity 1
 O         0.430519        -0.149762         0.461294
 C        -0.822653         0.303119         0.892381
 C        -1.945020         0.894243         0.072266
 C        -2.444371         0.856404         1.611912
 C        -1.082973         1.470429         2.027388
 C        -3.887194         0.838022         1.942106
 O        -4.263031        -0.411605         1.346735
 C        -2.974999        -1.377573         1.389816
 C        -1.797447        -0.563504         1.750638
 H         0.379257        -0.271409        -0.457408
 H        -1.806070         1.902522        -0.380925
 H        -2.391100         0.157009        -0.563247
 H        -0.921425         2.441702         1.640310
 H        -0.845370         1.405016         3.180499
 H        -3.978614         0.777397         3.065458
 H        -4.649350         1.625424         1.579543
 H        -3.230282        -2.189169         2.141455
 H        -3.000327        -1.876614         0.423680
 H        -1.444519        -0.753275         2.799152
