19
Iteration:   960charge 0 multiplicity 1
 O         0.437826        -0.232545         0.575775
 C        -0.816740         0.292225         0.806659
 C        -1.943977         0.951501         0.092134
 C        -2.470928         0.914926         1.535967
 C        -1.118056         1.441348         1.910776
 C        -3.913098         0.829474         1.946261
 O        -4.179996        -0.475894         1.620528
 C        -3.063225        -1.345781         1.252772
 C        -1.810913        -0.582194         1.644453
 H         1.074596         0.189669         1.010983
 H        -1.780940         2.036651        -0.181942
 H        -2.486607         0.350248        -0.597760
 H        -0.866013         2.515892         1.481567
 H        -0.797275         1.401432         2.929287
 H        -4.133612         1.164616         3.005822
 H        -4.447394         1.503326         1.150000
 H        -3.344491        -2.396141         1.615941
 H        -2.971894        -1.382915         0.096892
 H        -1.396123        -0.787248         2.682592
