19
Iteration:  2311
 O         0.437306        -0.149623         0.406372
 C        -0.861703         0.251759         0.975338
 C        -2.039436         0.969668         0.100143
 C        -2.408584         0.856557         1.590693
 C        -1.051318         1.450049         1.911172
 C        -3.827924         0.788588         1.958461
 O        -4.186934        -0.494692         1.391039
 C        -3.047101        -1.317816         1.349094
 C        -1.882114        -0.562433         1.744907
 H         1.061453         0.283796         1.063154
 H        -1.619937         1.807993        -0.298527
 H        -2.629321         0.447299        -0.680093
 H        -1.017907         2.496189         1.489361
 H        -0.845691         1.557361         2.870945
 H        -4.009161         0.800822         3.031491
 H        -4.278771         1.620830         1.384579
 H        -3.202476        -1.961578         2.236551
 H        -3.119675        -1.845461         0.396707
 H        -1.593429        -0.853519         2.778542
