19
Iteration:  3474
 O         0.488213        -0.094689         0.506328
 C        -0.820426         0.319903         0.888446
 C        -1.941889         0.788825        -0.067642
 C        -2.461626         0.929552         1.403622
 C        -1.106548         1.596501         1.761081
 C        -3.892680         0.834684         1.835677
 O        -4.211514        -0.563145         1.886700
 C        -3.086694        -1.392093         1.389140
 C        -1.846865        -0.575660         1.724682
 H         1.118935         0.061086         1.352984
 H        -1.744441         1.708186        -0.516179
 H        -2.475764         0.081346        -0.675648
 H        -0.775003         2.489860         1.238910
 H        -0.818899         1.477336         2.823726
 H        -4.077872         1.271366         2.818787
 H        -4.584064         1.328887         1.092639
 H        -3.274619        -2.363025         1.936440
 H        -3.220385        -1.518928         0.329439
 H        -1.361350        -0.746368         2.696500
