19
Iteration:  2583
 O         0.555617        -0.100414         0.624434
 C        -0.718504         0.339168         0.886147
 C        -1.988802         0.827367         0.000934
 C        -2.458935         0.917543         1.440839
 C        -1.044779         1.507740         1.885716
 C        -3.886907         0.801623         1.970478
 O        -4.274758        -0.557388         1.620653
 C        -3.164844        -1.343895         1.382562
 C        -1.853797        -0.533585         1.641146
 H         0.954435        -0.083165        -0.391234
 H        -1.775169         1.660284        -0.616855
 H        -2.536551         0.205048        -0.668204
 H        -1.009945         2.593112         1.642918
 H        -0.692046         1.388989         2.843641
 H        -3.996171         0.934371         3.045854
 H        -4.665076         1.397377         1.454381
 H        -3.217158        -2.376484         1.855968
 H        -3.174839        -1.446180         0.312438
 H        -1.645505        -0.653923         2.716085
