19
Iteration:  2541charge 0 multiplicity 1
 O         0.453798        -0.153102         0.427786
 C        -0.835516         0.277616         0.900393
 C        -1.879042         0.893964         0.047340
 C        -2.449541         1.009659         1.448403
 C        -1.113067         1.540566         1.988827
 C        -3.936482         0.793501         1.827676
 O        -4.178443        -0.604451         1.750339
 C        -3.072848        -1.331557         1.210733
 C        -1.823739        -0.501498         1.783960
 H         0.711643        -0.873403         1.001682
 H        -1.823631         1.821091        -0.487168
 H        -2.388068         0.229171        -0.578020
 H        -0.800778         2.645622         1.681188
 H        -0.788460         1.288880         2.995680
 H        -4.144375         1.130310         2.858535
 H        -4.673017         1.244251         1.118443
 H        -3.273581        -2.303514         1.704596
 H        -3.114625        -1.338031         0.137805
 H        -1.451249        -0.623064         2.831005
