19
Iteration:   861
 O         0.372096        -0.133042         0.380834
 C        -0.836395         0.320768         0.931018
 C        -1.948008         0.878017         0.162968
 C        -2.403290         0.982087         1.681785
 C        -0.977897         1.458939         1.989262
 C        -3.957571         0.798965         1.888977
 O        -4.265053        -0.530411         1.314549
 C        -2.997967        -1.388219         1.402298
 C        -1.814203        -0.423440         1.727544
 H         0.493540        -0.989214         0.650000
 H        -1.647299         1.779674        -0.394158
 H        -2.576304         0.114333        -0.357064
 H        -0.655100         2.485076         1.590874
 H        -0.508704         1.219198         2.874635
 H        -4.252299         0.864882         3.005214
 H        -4.491102         1.641934         1.287060
 H        -3.020924        -2.118737         2.265229
 H        -3.010971        -1.848362         0.377867
 H        -1.489472        -0.764188         2.756990
