19
Iteration:  4927
 O         0.372443        -0.190420         0.517348
 C        -0.825231         0.289596         0.950950
 C        -2.035927         0.683120         0.036864
 C        -2.448641         0.994982         1.478413
 C        -1.037874         1.643295         1.769139
 C        -3.893731         0.775570         1.819725
 O        -4.185511        -0.591022         1.659277
 C        -2.978194        -1.330191         1.329576
 C        -1.841798        -0.421882         1.894929
 H         0.910105         0.494484         0.278568
 H        -1.825160         1.608335        -0.584792
 H        -2.328725        -0.196074        -0.477104
 H        -0.931885         2.554157         1.166953
 H        -0.609241         1.730998         2.764937
 H        -4.038196         1.023653         2.885411
 H        -4.490489         1.542406         1.305605
 H        -3.125718        -2.231223         1.920019
 H        -2.878639        -1.623524         0.242130
 H        -1.606592        -0.733600         2.924720
