19
Iteration:   767
 O         0.422967        -0.015550         0.499137
 C        -0.861736         0.245720         0.968235
 C        -1.862049         0.877971        -0.000457
 C        -2.430052         0.965049         1.484383
 C        -1.056766         1.488419         1.970850
 C        -3.851034         0.846786         1.916280
 O        -4.262890        -0.537006         1.627568
 C        -3.097813        -1.352118         1.253191
 C        -1.869712        -0.628854         1.690447
 H         0.784023        -1.054608         0.588072
 H        -1.284610         1.762022        -0.519781
 H        -2.471386         0.450359        -0.768774
 H        -0.548572         2.417775         1.700440
 H        -0.714778         1.433294         3.104580
 H        -3.989245         1.002535         3.011075
 H        -4.553830         1.469944         1.425884
 H        -3.239460        -2.318437         1.730896
 H        -3.171946        -1.492097         0.174149
 H        -1.692572        -0.852232         2.732596
