19
Iteration:  1994
 O         0.515984        -0.057792         0.426244
 C        -0.778797         0.278429         0.918747
 C        -1.897449         0.887702         0.054300
 C        -2.416845         0.976420         1.478764
 C        -1.079526         1.499683         1.896809
 C        -3.832187         0.814037         2.036341
 O        -4.341383        -0.517376         1.467016
 C        -3.092250        -1.469205         1.354973
 C        -1.886653        -0.540826         1.755042
 H         0.742181        -0.736152         0.961636
 H        -1.718268         1.917594        -0.411276
 H        -2.545787         0.387194        -0.652346
 H        -0.866587         2.585510         1.541531
 H        -0.779239         1.308069         2.885041
 H        -3.897658         0.918542         3.142574
 H        -4.553905         1.490264         1.516880
 H        -3.102688        -2.182919         2.165158
 H        -3.328481        -1.870651         0.426551
 H        -1.604113        -0.678907         2.782168
