19
Iteration:  1724
 O         0.354308        -0.327356         0.457164
 C        -0.783379         0.360293         0.869122
 C        -2.036701         0.861955         0.088830
 C        -2.448699         0.904418         1.670683
 C        -1.038479         1.551577         1.976316
 C        -3.904668         0.765089         1.960825
 O        -4.227019        -0.430650         1.304018
 C        -2.942905        -1.394254         1.409876
 C        -1.768870        -0.447142         1.765428
 H         0.917220         0.266743         0.015751
 H        -2.024155         1.883881        -0.336732
 H        -2.570068         0.243187        -0.583028
 H        -1.178039         2.675480         1.726031
 H        -0.590214         1.473961         2.914466
 H        -4.163231         0.823355         3.054220
 H        -4.499203         1.509447         1.445137
 H        -3.243133        -2.136239         2.092878
 H        -2.938891        -1.866834         0.424849
 H        -1.328880        -0.687462         2.768264
