19
Iteration:  2724charge 0 multiplicity 1
 O         0.486405        -0.140218         0.488428
 C        -0.788661         0.324130         0.924076
 C        -1.954917         0.805490         0.035549
 C        -2.463359         0.913241         1.480727
 C        -1.120795         1.526037         1.822734
 C        -3.888035         0.865489         1.983843
 O        -4.254920        -0.525904         1.538037
 C        -3.036822        -1.452796         1.343117
 C        -1.867635        -0.473737         1.784686
 H         1.179855         0.414923         0.696606
 H        -1.926197         1.718501        -0.686026
 H        -2.351625        -0.081238        -0.449487
 H        -0.962408         2.562169         1.333711
 H        -0.656834         1.553475         2.789053
 H        -3.899316         0.939107         3.091425
 H        -4.597538         1.566872         1.501495
 H        -3.117175        -2.101971         2.239631
 H        -3.073937        -2.013984         0.388584
 H        -1.525557        -0.709744         2.771348
