19
Iteration:  3513
 O         0.532291        -0.146149         0.500064
 C        -0.779354         0.294056         0.911735
 C        -1.911906         0.661903        -0.073855
 C        -2.518116         1.046817         1.374633
 C        -1.137584         1.623561         1.787904
 C        -3.896836         0.812030         2.028398
 O        -4.221798        -0.554265         1.742446
 C        -3.106483        -1.399850         1.371498
 C        -1.844842        -0.500500         1.722696
 H         1.186311         0.607851         0.558571
 H        -1.657645         1.545882        -0.863547
 H        -2.390580        -0.078941        -0.706188
 H        -0.950582         2.691308         1.491321
 H        -0.945280         1.604555         2.848438
 H        -3.746236         1.007611         3.148499
 H        -4.713894         1.447585         1.649220
 H        -3.208040        -2.275042         2.000677
 H        -3.100172        -1.823187         0.314090
 H        -1.766263        -0.694610         2.805460
