19
Iteration:  2096
 O         0.458789        -0.184118         0.412934
 C        -0.722328         0.362311         0.924331
 C        -2.057658         0.871546         0.026761
 C        -2.438439         0.900593         1.487960
 C        -1.054171         1.507826         2.018256
 C        -3.828682         0.738041         1.992910
 O        -4.220081        -0.465123         1.439964
 C        -3.094960        -1.352318         1.328183
 C        -1.886891        -0.507066         1.740668
 H         1.240956        -0.047826         1.082561
 H        -1.893299         1.798195        -0.499320
 H        -2.555995         0.051255        -0.602468
 H        -0.853416         2.530390         1.874239
 H        -1.014132         1.262585         3.122941
 H        -3.864229         0.911087         3.122044
 H        -4.469811         1.532246         1.601128
 H        -3.409172        -2.142136         1.942841
 H        -3.165564        -1.848572         0.317893
 H        -1.502776        -0.622933         2.749651
