19
Iteration:  2714
 O         0.453628        -0.178344         0.512399
 C        -0.761966         0.354135         0.904591
 C        -1.965723         0.781057         0.056002
 C        -2.484687         0.872106         1.493829
 C        -1.028322         1.595968         1.837279
 C        -3.896395         0.733112         1.935382
 O        -4.250033        -0.551527         1.498753
 C        -3.081236        -1.320200         1.438777
 C        -1.851762        -0.436176         1.741221
 H         0.985451         0.477837         0.210318
 H        -1.676591         1.688345        -0.585539
 H        -2.497746         0.066803        -0.532056
 H        -0.803161         2.662109         1.590218
 H        -0.733024         1.401312         2.805783
 H        -3.950285         0.758447         3.029347
 H        -4.598861         1.493012         1.557842
 H        -3.111946        -2.171740         2.159628
 H        -3.110878        -1.856123         0.510023
 H        -1.588400        -0.519728         2.788396
