19
Iteration:  4721charge 0 multiplicity 1
 O         0.583743        -0.000509         0.359260
 C        -0.768463         0.336887         0.880458
 C        -2.031930         0.548938         0.044994
 C        -2.459849         0.905418         1.564622
 C        -1.156793         1.579452         1.774771
 C        -3.899080         0.867404         1.927598
 O        -4.213442        -0.446598         1.467029
 C        -3.056850        -1.388821         1.530346
 C        -1.849226        -0.569349         1.859295
 H         0.876317        -0.507183         1.021711
 H        -2.180491         1.460063        -0.631961
 H        -2.450409        -0.321147        -0.403037
 H        -0.975533         2.595705         1.340840
 H        -0.931413         1.570939         2.859755
 H        -3.991200         1.039723         3.018886
 H        -4.566619         1.735272         1.546838
 H        -3.348785        -2.149171         2.270963
 H        -2.981440        -1.731803         0.483850
 H        -1.369609        -0.604815         2.875150
