19
Iteration:  3965charge 0 multiplicity 1
 O         0.452888        -0.095922         0.708349
 C        -0.836981         0.369708         0.841542
 C        -2.014656         0.693308        -0.101713
 C        -2.495629         0.947991         1.339523
 C        -1.151831         1.607411         1.653475
 C        -3.793342         0.803597         1.895414
 O        -4.182809        -0.569677         1.770532
 C        -3.008847        -1.420828         1.504300
 C        -1.833560        -0.444237         1.760593
 H         0.695646        -0.202659        -0.153452
 H        -1.866142         1.634734        -0.717927
 H        -2.425542        -0.128645        -0.737879
 H        -1.005500         2.600575         1.127578
 H        -0.706394         1.521337         2.657584
 H        -3.575842         1.029459         2.954377
 H        -4.679519         1.449909         1.649610
 H        -3.154903        -2.318475         2.114875
 H        -3.083146        -1.798756         0.451263
 H        -1.567767        -0.532723         2.887713
