19
Iteration:  3506charge 0 multiplicity 1
 O         0.567439        -0.120645         0.472568
 C        -0.794089         0.299565         0.911630
 C        -1.845380         0.663854        -0.124304
 C        -2.530525         1.038365         1.359736
 C        -1.165848         1.570703         1.776819
 C        -3.903890         0.826104         2.059460
 O        -4.222679        -0.578564         1.773366
 C        -3.047964        -1.395574         1.365786
 C        -1.981745        -0.466517         1.789556
 H         1.090389         0.558410         0.653924
 H        -1.655691         1.474196        -0.784069
 H        -2.319859        -0.085561        -0.742196
 H        -0.742680         2.508341         1.390973
 H        -0.968475         1.537371         2.871042
 H        -3.654676         1.089720         3.076957
 H        -4.665904         1.525613         1.646447
 H        -3.340133        -2.396428         1.807507
 H        -3.065017        -1.527653         0.287301
 H        -1.628690        -0.652060         2.797534
