19
Iteration:   884charge 0 multiplicity 1
 O         0.428693        -0.108423         0.400684
 C        -0.822817         0.352425         0.898727
 C        -2.046278         0.940794         0.103590
 C        -2.409341         0.810577         1.591185
 C        -1.047857         1.507448         1.982878
 C        -3.865257         0.844583         1.860098
 O        -4.165688        -0.458002         1.377686
 C        -3.101089        -1.442573         1.399416
 C        -1.833738        -0.565032         1.821416
 H         0.866601        -0.997843         0.920505
 H        -1.966486         2.062727        -0.131493
 H        -2.573489         0.236976        -0.533245
 H        -0.721287         2.480558         1.520177
 H        -0.703082         1.338844         2.954622
 H        -4.012611         1.032618         3.006813
 H        -4.347237         1.725211         1.267674
 H        -3.317751        -2.266208         2.138993
 H        -3.031719        -1.701565         0.268800
 H        -1.550682        -0.935163         2.834396
