19
Iteration:  4147charge 0 multiplicity 1
 O         0.435497        -0.014797         0.453955
 C        -0.824341         0.318575         0.835629
 C        -1.963567         0.693739        -0.030070
 C        -2.485599         0.961072         1.472016
 C        -1.060273         1.598217         1.742345
 C        -3.919871         0.845012         1.888783
 O        -4.182494        -0.610649         1.563524
 C        -2.999412        -1.438385         1.615978
 C        -1.835550        -0.404741         1.860545
 H         0.564967        -0.898223         0.597009
 H        -1.840172         1.624678        -0.559821
 H        -2.429323        -0.107154        -0.672701
 H        -0.823727         2.558563         1.278400
 H        -0.708252         1.500421         2.773714
 H        -4.209156         0.923873         2.932700
 H        -4.610233         1.431226         1.305915
 H        -3.024524        -2.139168         2.443549
 H        -3.112623        -2.078971         0.702663
 H        -1.455928        -0.394923         2.892513
