19
Iteration:  3973
 O         0.500551        -0.138683         0.685103
 C        -0.804201         0.401339         0.846136
 C        -2.087497         0.667033        -0.110025
 C        -2.459231         0.912036         1.315506
 C        -1.178826         1.649243         1.709718
 C        -3.794639         0.821436         1.847463
 O        -4.132499        -0.554078         1.816746
 C        -3.029637        -1.410312         1.466107
 C        -1.911180        -0.465841         1.794836
 H         0.635797        -0.058829        -0.275371
 H        -1.911647         1.526518        -0.655457
 H        -2.345541        -0.209771        -0.769701
 H        -1.071719         2.706914         1.409562
 H        -0.944865         1.533672         2.795557
 H        -3.617847         0.973954         2.938806
 H        -4.580861         1.437082         1.394053
 H        -2.923035        -2.169350         2.169734
 H        -3.154902        -1.719467         0.439601
 H        -1.456225        -0.549093         2.701137
