19
Iteration:   719
 O         0.514740        -0.122041         0.564421
 C        -0.824146         0.246944         0.883859
 C        -1.923621         1.028866         0.082678
 C        -2.438477         1.005143         1.541581
 C        -1.005440         1.414160         1.929233
 C        -3.926916         0.810356         1.786869
 O        -4.224496        -0.580887         1.770397
 C        -3.140804        -1.347882         1.198213
 C        -1.860888        -0.539814         1.684588
 H         0.678368        -0.994040         0.431202
 H        -1.728091         1.961474        -0.416495
 H        -2.447466         0.431204        -0.739244
 H        -0.738902         2.495816         1.677495
 H        -0.765962         1.375032         2.931334
 H        -4.247574         1.201411         2.707497
 H        -4.604039         1.318392         1.034147
 H        -3.150007        -2.395119         1.569134
 H        -3.368866        -1.416790         0.093294
 H        -1.490115        -0.854847         2.683455
