19
Iteration:  2819
 O         0.386188        -0.211189         0.587151
 C        -0.853120         0.298344         0.946218
 C        -1.946751         0.894698        -0.071417
 C        -2.513585         1.010128         1.392642
 C        -1.016795         1.555776         1.888154
 C        -3.989526         0.845638         1.716745
 O        -4.099348        -0.600058         1.861587
 C        -2.975224        -1.426947         1.302572
 C        -1.813255        -0.484056         1.805907
 H         0.610779        -0.004201        -0.400300
 H        -1.721914         1.878680        -0.471367
 H        -2.492384         0.191003        -0.696265
 H        -0.747583         2.573328         1.536743
 H        -0.827372         1.237159         2.970607
 H        -4.233574         1.304538         2.691846
 H        -4.689162         1.145995         0.931167
 H        -3.059736        -2.215835         1.988414
 H        -3.043936        -1.634639         0.203338
 H        -1.747159        -0.537461         2.913135
