19
Iteration:  2019charge 0 multiplicity 1
 O         0.330997        -0.119353         0.352747
 C        -0.847572         0.302859         0.939391
 C        -1.955764         0.841029         0.064640
 C        -2.408434         0.900083         1.626732
 C        -1.118852         1.483058         2.005703
 C        -3.860483         0.772433         1.904562
 O        -4.130859        -0.469887         1.387690
 C        -2.992612        -1.284452         1.384602
 C        -1.837766        -0.506070         1.793700
 H         0.633224        -0.938557         0.848864
 H        -2.049099         1.843702        -0.309994
 H        -2.337651         0.075935        -0.709674
 H        -0.762237         2.443886         1.625305
 H        -0.766385         1.225418         2.996224
 H        -4.189579         0.901862         2.999435
 H        -4.369928         1.524101         1.291443
 H        -3.121883        -2.025899         2.166457
 H        -3.126233        -1.811914         0.373832
 H        -1.519999        -0.623750         2.828434
