19
Iteration:  1626
 O         0.405411        -0.226467         0.539661
 C        -0.796569         0.291453         0.927292
 C        -1.899666         0.984978         0.041243
 C        -2.430015         0.941692         1.458990
 C        -1.115107         1.457686         2.009817
 C        -3.907542         0.920805         1.753867
 O        -4.161072        -0.645426         1.860537
 C        -3.063430        -1.322915         1.201350
 C        -1.869708        -0.555433         1.650128
 H         0.770575         0.268055        -0.093700
 H        -1.619922         2.035778        -0.245056
 H        -2.254788         0.442506        -0.822892
 H        -0.853095         2.481628         1.728904
 H        -0.874013         1.364307         2.982887
 H        -4.420745         1.157078         2.718870
 H        -4.481227         1.321001         0.926277
 H        -3.040559        -2.339934         1.699366
 H        -3.208334        -1.397103         0.095823
 H        -1.607720        -0.726237         2.710149
