19
Iteration:  2460
 O         0.567156        -0.113410         0.569165
 C        -0.737703         0.365902         0.898570
 C        -1.950819         0.800155         0.001926
 C        -2.486188         0.882290         1.492739
 C        -1.025496         1.557502         1.996988
 C        -3.943941         0.815568         1.935763
 O        -4.246802        -0.511927         1.673228
 C        -3.120527        -1.320313         1.247530
 C        -1.882328        -0.592175         1.657613
 H         0.513105        -0.437181        -0.328404
 H        -1.724635         1.809746        -0.373799
 H        -2.360550        -0.046826        -0.652643
 H        -0.916610         2.543693         1.586423
 H        -0.805802         1.507470         3.099869
 H        -4.222838         1.057475         2.974757
 H        -4.630197         1.436148         1.315711
 H        -3.171615        -2.341035         1.573075
 H        -3.276083        -1.452541         0.174274
 H        -1.427103        -0.889064         2.590779
