19
Iteration:  4659charge 0 multiplicity 1
 O         0.407847        -0.417565         0.430781
 C        -0.770664         0.352307         0.863914
 C        -2.016683         0.885264         0.011975
 C        -2.470749         1.007101         1.479182
 C        -1.236929         1.714903         1.892917
 C        -3.870048         0.807094         1.782108
 O        -4.162566        -0.620734         1.706038
 C        -2.872370        -1.343293         1.469414
 C        -1.810288        -0.367146         1.699307
 H         0.621372        -0.889118         1.161860
 H        -1.963914         1.801514        -0.503063
 H        -2.518962         0.116203        -0.564907
 H        -1.014046         2.725928         1.502232
 H        -1.095831         1.599744         2.994673
 H        -4.252830         1.017306         2.802383
 H        -4.571244         1.338075         1.081800
 H        -2.739503        -2.074452         2.318475
 H        -2.888679        -1.821584         0.498630
 H        -1.589948        -0.592302         2.728792
