19
Iteration:  1034
 O         0.449641        -0.232695         0.567637
 C        -0.788203         0.323472         0.972000
 C        -1.931105         1.011336         0.079012
 C        -2.414538         0.937728         1.492424
 C        -1.105092         1.495592         2.034684
 C        -3.847982         0.797739         1.799470
 O        -4.206838        -0.536545         1.725750
 C        -3.134732        -1.322538         1.185349
 C        -1.828274        -0.572939         1.609467
 H         0.541210        -0.282791        -0.367370
 H        -1.760730         1.917323        -0.483531
 H        -2.456638         0.217506        -0.476488
 H        -0.929785         2.633762         1.835545
 H        -0.983727         1.333790         3.063906
 H        -4.042718         1.121247         2.773434
 H        -4.500714         1.414308         1.144328
 H        -3.071874        -2.370621         1.591334
 H        -3.250479        -1.544434         0.153754
 H        -1.492623        -0.891961         2.615436
