19
Iteration:   561charge 0 multiplicity 1
 O         0.368049        -0.304083         0.336877
 C        -0.825814         0.320506         0.915040
 C        -1.968229         0.908832         0.054186
 C        -2.523133         0.987680         1.570121
 C        -1.031794         1.503946         1.953508
 C        -3.946919         0.815869         1.989925
 O        -4.146880        -0.523652         1.284388
 C        -2.998978        -1.329215         1.404420
 C        -1.834113        -0.421066         1.896741
 H         1.227238        -0.399559         1.041167
 H        -1.752926         1.901689        -0.348992
 H        -2.478135         0.339480        -0.649969
 H        -0.956124         2.520380         1.857370
 H        -0.609524         1.360178         2.989151
 H        -4.006578         0.614026         3.038138
 H        -4.811884         1.374109         1.732214
 H        -3.160658        -2.185915         2.150211
 H        -2.535533        -1.751030         0.450020
 H        -1.578528        -0.680906         2.972756
