19
Iteration:  4563charge 0 multiplicity 1
 O         0.536015         0.060803         0.563629
 C        -0.797903         0.241994         0.871755
 C        -1.938560         0.775381        -0.182079
 C        -2.475237         0.917281         1.264644
 C        -1.164275         1.514143         1.724440
 C        -3.815180         0.851838         1.918146
 O        -4.218062        -0.518960         1.845457
 C        -3.136221        -1.430121         1.488297
 C        -1.886996        -0.640079         1.744700
 H         1.097326         0.315353         1.448918
 H        -1.403764         1.631350        -0.607675
 H        -2.378172         0.057868        -0.940680
 H        -0.870993         2.488990         1.396209
 H        -0.997477         1.382886         2.792442
 H        -3.684354         1.295991         2.912566
 H        -4.578548         1.460436         1.474015
 H        -3.223276        -2.203671         2.266640
 H        -3.458522        -1.814974         0.496783
 H        -1.683616        -0.761503         2.855868
