19
Iteration:  2407
 O         0.518850        -0.084050         0.479598
 C        -0.812309         0.316526         0.879075
 C        -1.986857         0.911083         0.018315
 C        -2.443071         1.001511         1.578255
 C        -1.058635         1.445396         1.949512
 C        -3.899213         0.803626         1.971104
 O        -4.309975        -0.540880         1.473916
 C        -3.065471        -1.371197         1.341441
 C        -1.811602        -0.502086         1.701019
 H         0.775279        -0.913003         0.691736
 H        -1.710548         1.749660        -0.613473
 H        -2.649137         0.146892        -0.534776
 H        -0.531584         2.495283         1.800128
 H        -0.752746         1.138457         3.025101
 H        -4.090690         0.602378         3.026878
 H        -4.522928         1.589805         1.484978
 H        -3.024648        -2.163933         2.141720
 H        -3.178371        -1.799932         0.326982
 H        -1.399655        -0.807275         2.722543
