19
Iteration:  1428
 O         0.387026        -0.193770         0.357034
 C        -0.787637         0.337076         0.935051
 C        -1.920368         0.909570         0.105082
 C        -2.410369         0.940114         1.580558
 C        -1.072913         1.509504         2.082332
 C        -3.878689         0.805136         2.001490
 O        -4.222262        -0.495216         1.326330
 C        -3.015407        -1.379526         1.318424
 C        -1.917058        -0.472395         1.738579
 H         0.619041        -0.814252         0.950059
 H        -1.933952         1.846517        -0.449081
 H        -2.497844         0.099604        -0.420090
 H        -0.702818         2.574780         1.686850
 H        -0.601034         1.270096         3.002042
 H        -3.914188         0.793721         3.073256
 H        -4.530893         1.563833         1.670565
 H        -3.167480        -2.273162         1.937138
 H        -2.901639        -1.823934         0.301326
 H        -1.644367        -0.713797         2.761507
