19
Iteration:  3196charge 0 multiplicity 1
 O         0.589968        -0.144872         0.582861
 C        -0.751628         0.291408         0.831189
 C        -2.008156         0.718449        -0.032151
 C        -2.452833         0.981345         1.436769
 C        -0.982073         1.617273         1.627207
 C        -3.913439         0.781562         1.880958
 O        -4.247140        -0.649027         1.728817
 C        -3.141331        -1.355177         1.528197
 C        -1.956901        -0.427428         1.805071
 H         0.995381         0.839616         0.254752
 H        -1.860404         1.604538        -0.547986
 H        -2.761516         0.181272        -0.736818
 H        -0.748470         2.664956         1.255858
 H        -0.578253         1.438072         2.732077
 H        -4.105858         1.012348         2.900091
 H        -4.622404         1.405250         1.301766
 H        -2.978866        -2.321757         2.179344
 H        -3.284301        -1.780712         0.464613
 H        -1.727041        -0.353807         2.890316
