19
Iteration:  1429charge 0 multiplicity 1
 O         0.385214        -0.190279         0.355605
 C        -0.787536         0.332265         0.932783
 C        -1.919652         0.912855         0.114010
 C        -2.408301         0.949880         1.587934
 C        -1.069829         1.508644         2.071166
 C        -3.885563         0.797488         1.995591
 O        -4.219702        -0.490143         1.324086
 C        -3.014978        -1.381629         1.314738
 C        -1.923941        -0.475013         1.747102
 H         0.622679        -0.853131         0.924128
 H        -1.895101         1.844565        -0.424547
 H        -2.474554         0.095762        -0.413192
 H        -0.689125         2.572510         1.664450
 H        -0.600189         1.273234         3.019260
 H        -3.896998         0.797174         3.076339
 H        -4.589442         1.529858         1.672107
 H        -3.165283        -2.287792         1.965110
 H        -2.890647        -1.823554         0.316801
 H        -1.620698        -0.701710         2.749870
