19
Iteration:  1865
 O         0.420381        -0.208818         0.562226
 C        -0.789974         0.328563         0.887196
 C        -1.857480         0.910509         0.053645
 C        -2.376900         0.857387         1.503137
 C        -1.186041         1.516150         2.015708
 C        -3.888477         0.851222         1.830216
 O        -4.252736        -0.585113         1.781794
 C        -3.091123        -1.272030         1.221474
 C        -1.819506        -0.552905         1.601809
 H         0.940295         0.068583        -0.339204
 H        -1.800167         1.926699        -0.249791
 H        -2.325569         0.225155        -0.583582
 H        -0.947726         2.560164         1.599996
 H        -0.778082         1.272819         2.904682
 H        -4.041853         1.131271         2.872747
 H        -4.512967         1.445556         1.204425
 H        -3.156927        -2.254588         1.599109
 H        -2.978588        -1.419955         0.090302
 H        -1.635184        -0.640340         2.653602
