19
Iteration:  2074charge 0 multiplicity 1
 O         0.286381        -0.257944         0.389156
 C        -0.851024         0.303237         0.932831
 C        -1.953792         0.906044         0.089933
 C        -2.439122         0.982374         1.643063
 C        -1.082146         1.501384         1.987101
 C        -3.908070         0.842443         1.950621
 O        -4.168669        -0.527050         1.334046
 C        -2.927319        -1.355318         1.366779
 C        -1.831297        -0.467085         1.738616
 H         1.032249        -0.028896         0.921371
 H        -1.606613         1.800161        -0.405915
 H        -2.507974         0.142782        -0.573030
 H        -0.837517         2.508965         1.739595
 H        -0.634571         1.184543         2.958124
 H        -3.990183         0.677322         3.080438
 H        -4.638038         1.600667         1.685343
 H        -3.076240        -2.190666         2.003672
 H        -2.924033        -1.824746         0.339653
 H        -1.460620        -0.580607         2.758416
