19
Iteration:  2317
 O         0.379875        -0.184336         0.381557
 C        -0.815174         0.228949         0.948780
 C        -2.012256         0.949158         0.101511
 C        -2.385943         0.875442         1.618748
 C        -1.095231         1.496729         1.947259
 C        -3.898484         0.830145         1.933249
 O        -4.191330        -0.497174         1.349845
 C        -3.017519        -1.344147         1.363762
 C        -1.832649        -0.532334         1.785727
 H         0.910570         0.235350         1.001403
 H        -1.656311         2.010257        -0.277500
 H        -2.674516         0.383089        -0.561171
 H        -0.938412         2.463773         1.463232
 H        -0.450187         1.536871         3.038147
 H        -4.050017         0.663475         3.032152
 H        -4.456463         1.674199         1.488803
 H        -3.112015        -2.156132         2.135158
 H        -3.074484        -1.849396         0.378442
 H        -1.497646        -0.822520         2.796909
