19
Iteration:  1421charge 0 multiplicity 1
 O         0.390186        -0.206248         0.381799
 C        -0.787868         0.370217         0.941660
 C        -1.959737         0.887594         0.030798
 C        -2.443600         0.885508         1.551800
 C        -1.081061         1.506137         2.111259
 C        -3.807993         0.846451         2.022315
 O        -4.240964        -0.519448         1.361502
 C        -3.035895        -1.350780         1.292007
 C        -1.832095        -0.480167         1.706456
 H         0.756735        -0.677714         1.157023
 H        -2.032884         1.813822        -0.530110
 H        -2.558190         0.195808        -0.549047
 H        -0.914190         2.578614         1.894705
 H        -0.684468         1.180334         3.139767
 H        -4.050347         0.706767         3.121833
 H        -4.274012         1.786550         1.549156
 H        -3.196202        -2.258505         1.989906
 H        -3.026210        -1.690597         0.273276
 H        -1.694455        -0.713417         2.769477
