19
Iteration:  2054
 O         0.292831        -0.253077         0.296457
 C        -0.848177         0.283100         0.994144
 C        -1.966525         1.012180         0.148428
 C        -2.423814         0.974774         1.628616
 C        -0.919386         1.560839         1.910446
 C        -3.926238         0.729338         1.898919
 O        -4.190890        -0.537035         1.306344
 C        -2.999184        -1.372531         1.368363
 C        -1.877324        -0.477499         1.940478
 H         1.055267        -0.275445         1.064014
 H        -1.976504         2.076057        -0.091683
 H        -2.471594         0.315559        -0.580984
 H        -0.578296         2.376696         1.357930
 H        -0.474459         1.625420         2.981415
 H        -4.280588         0.726577         2.981040
 H        -4.624237         1.368822         1.347384
 H        -3.038652        -2.352958         1.923457
 H        -2.733940        -1.713651         0.252282
 H        -1.652948        -0.742021         3.033718
