19
Iteration:    66charge 0 multiplicity 1
 O         0.495472        -0.101800         0.461544
 C        -0.752199         0.337684         0.916984
 C        -1.817314         0.775042        -0.035778
 C        -2.459586         0.993449         1.340337
 C        -1.106227         1.570376         1.813988
 C        -3.850152         0.850344         1.854297
 O        -4.261826        -0.611522         1.802721
 C        -3.195102        -1.459611         1.407510
 C        -1.944321        -0.449977         1.767655
 H         1.078640        -0.002687         1.097377
 H        -1.578815         1.675092        -0.525845
 H        -2.142986        -0.023752        -0.669346
 H        -0.689023         2.546514         1.499153
 H        -1.068614         1.514411         2.917309
 H        -3.800800         1.051408         2.853147
 H        -4.625246         1.377352         1.351815
 H        -3.210666        -2.406682         1.909704
 H        -3.252705        -1.743595         0.370441
 H        -1.619108        -0.695006         2.788781
