19
Iteration:  1713charge 0 multiplicity 1
 O         0.348288        -0.278201         0.508031
 C        -0.805121         0.403136         0.867183
 C        -1.981895         0.902958         0.088299
 C        -2.384970         0.851376         1.614989
 C        -1.140744         1.575273         1.938985
 C        -3.850007         0.856525         1.993419
 O        -4.266799        -0.489703         1.342002
 C        -2.986347        -1.393226         1.360696
 C        -1.803442        -0.544404         1.760061
 H         1.055303         0.077998        -0.209367
 H        -1.893833         1.935496        -0.297029
 H        -2.395296         0.160544        -0.529335
 H        -0.918986         2.645105         1.506945
 H        -0.728068         1.340975         2.856490
 H        -4.015230         0.713585         3.094940
 H        -4.359281         1.726564         1.617732
 H        -3.033303        -1.975844         2.229411
 H        -2.828727        -2.020284         0.474907
 H        -1.430689        -0.853749         2.766281
