19
Iteration:  1929charge 0 multiplicity 1
 O         0.390011        -0.231923         0.453823
 C        -0.775551         0.355372         0.907336
 C        -1.840211         0.909480         0.055841
 C        -2.472849         0.969600         1.522040
 C        -1.120136         1.524853         1.962568
 C        -3.949977         0.841238         1.820043
 O        -4.175603        -0.583605         1.763996
 C        -3.081350        -1.330731         1.211498
 C        -1.816396        -0.614649         1.716330
 H         1.259042         0.204067         0.804554
 H        -1.711102         1.983547        -0.299605
 H        -2.330129         0.270147        -0.642025
 H        -0.746153         2.589146         1.665789
 H        -0.806169         1.349239         2.944012
 H        -4.221650         1.230146         2.841993
 H        -4.672277         1.303621         1.099400
 H        -3.290193        -2.346599         1.535757
 H        -3.156662        -1.342376         0.052903
 H        -1.744074        -0.776601         2.770003
