19
Iteration:  1568
 O         0.389269        -0.254172         0.582345
 C        -0.810221         0.301918         0.896735
 C        -1.958537         0.996795        -0.024010
 C        -2.423767         0.875455         1.453142
 C        -1.120840         1.495776         1.993638
 C        -3.836864         0.822636         1.809370
 O        -4.138620        -0.547772         1.807367
 C        -3.078180        -1.332551         1.190794
 C        -1.868696        -0.537961         1.694346
 H         1.126874         0.549386         0.697788
 H        -1.883103         2.054275        -0.328579
 H        -2.436408         0.322141        -0.811985
 H        -1.106359         2.451802         1.454077
 H        -0.819366         1.392477         3.013158
 H        -4.064994         0.988602         2.915144
 H        -4.464368         1.492831         1.187804
 H        -3.269548        -2.341710         1.407087
 H        -3.119011        -1.274694         0.034231
 H        -1.474135        -0.992032         2.640010
