19
Iteration:  3639
 O         0.386934        -0.157286         0.571358
 C        -0.862678         0.331423         0.772173
 C        -2.024939         0.819902        -0.054784
 C        -2.436985         1.010449         1.583995
 C        -0.927512         1.533574         1.760260
 C        -3.978389         0.718918         1.938577
 O        -4.236181        -0.566509         1.458310
 C        -2.995665        -1.348877         1.576557
 C        -1.787672        -0.446601         1.851424
 H         0.838574         0.456456        -0.095404
 H        -1.922270         1.733503        -0.618309
 H        -2.380081        -0.154120        -0.644272
 H        -0.660361         2.507997         1.259594
 H        -0.508351         1.392613         2.809825
 H        -4.175370         0.863409         3.042822
 H        -4.682788         1.427813         1.445256
 H        -3.032752        -2.211032         2.362495
 H        -3.022079        -1.834019         0.586095
 H        -1.371463        -0.740942         2.840252
