19
Iteration:  3485charge 0 multiplicity 1
 O         0.444518        -0.060899         0.510863
 C        -0.780652         0.260497         0.896783
 C        -1.889512         0.735536        -0.074634
 C        -2.475996         0.870607         1.346659
 C        -1.086787         1.507926         1.720944
 C        -3.888758         0.810184         1.911831
 O        -4.271190        -0.606815         1.871009
 C        -3.078809        -1.264942         1.366695
 C        -1.841247        -0.476422         1.768729
 H         1.155485         0.409872         1.149676
 H        -1.664242         1.654148        -0.491992
 H        -2.255281         0.147463        -0.907708
 H        -0.994927         2.532044         1.378832
 H        -0.778885         1.498508         2.795437
 H        -3.756360         1.165555         2.927341
 H        -4.561188         1.507589         1.345858
 H        -3.101707        -2.301815         1.866671
 H        -3.137668        -1.462406         0.314609
 H        -1.847807        -0.509400         2.872101
