19
Iteration:   764
 O         0.423933        -0.020467         0.482380
 C        -0.863658         0.249119         0.979555
 C        -1.818271         0.872175         0.005080
 C        -2.422263         0.965010         1.468401
 C        -1.083415         1.486539         1.995718
 C        -3.861872         0.821698         1.920700
 O        -4.270064        -0.523995         1.649204
 C        -3.107672        -1.342780         1.254968
 C        -1.837853        -0.609781         1.685796
 H         0.620498        -0.903673         0.567962
 H        -1.285567         1.668991        -0.552792
 H        -2.461415         0.414181        -0.771345
 H        -0.568678         2.468477         1.671823
 H        -0.773761         1.296303         3.010031
 H        -4.032991         1.015411         2.931621
 H        -4.594472         1.486617         1.385856
 H        -3.363654        -2.289122         1.694423
 H        -3.124802        -1.541811         0.132002
 H        -1.606008        -0.913457         2.706922
