19
Iteration:  1256charge 0 multiplicity 1
 O         0.397562        -0.089228         0.485002
 C        -0.819208         0.309614         0.881913
 C        -1.862134         0.924572         0.054975
 C        -2.460616         0.797425         1.507737
 C        -1.117808         1.467033         2.074142
 C        -3.877973         0.915213         1.911279
 O        -4.210427        -0.482704         1.632185
 C        -2.988448        -1.376328         1.152107
 C        -1.870815        -0.591065         1.677487
 H         0.708458        -0.888537         0.879924
 H        -1.654034         1.858208        -0.424433
 H        -2.451818         0.249980        -0.642847
 H        -1.065432         2.434516         1.761463
 H        -0.842093         1.277953         3.084187
 H        -3.899419         1.235356         3.000062
 H        -4.550862         1.541309         1.266155
 H        -3.192110        -2.266511         1.830148
 H        -3.137898        -1.530622         0.100456
 H        -1.609868        -0.827130         2.752622
