19
Iteration:  4265
 O         0.461970        -0.117073         0.572642
 C        -0.782077         0.375548         0.866273
 C        -1.947507         0.773647        -0.149430
 C        -2.476991         0.808630         1.420925
 C        -1.207702         1.536638         1.796451
 C        -3.852765         0.864651         1.873675
 O        -4.220188        -0.534937         1.709631
 C        -3.016078        -1.392406         1.516036
 C        -1.820380        -0.552027         1.786338
 H         0.939116         0.585522         0.072131
 H        -1.840157         1.729762        -0.644526
 H        -2.460660         0.065457        -0.836618
 H        -1.115355         2.476574         1.279053
 H        -0.904825         1.621825         2.828331
 H        -3.711841         1.208502         2.961315
 H        -4.526028         1.575204         1.376914
 H        -2.957249        -2.188247         2.279158
 H        -3.186065        -1.836922         0.572623
 H        -1.530405        -0.503335         2.878820
