19
Iteration:  3422charge 0 multiplicity 1
 O         0.373984        -0.159090         0.413365
 C        -0.862225         0.304565         0.948821
 C        -1.763522         0.895703        -0.074408
 C        -2.489939         0.985298         1.387355
 C        -1.058752         1.582015         1.831550
 C        -4.017880         0.839809         1.713536
 O        -4.162424        -0.706329         1.942135
 C        -2.931091        -1.353658         1.437629
 C        -1.904543        -0.441658         1.874099
 H         0.397087        -1.132771        -0.011191
 H        -1.361898         1.832314        -0.454931
 H        -2.211939         0.181565        -0.931696
 H        -0.909238         2.497170         1.294410
 H        -0.754216         1.696366         2.911513
 H        -4.462171         1.204943         2.664496
 H        -4.629789         1.198565         0.892429
 H        -3.207642        -2.330106         1.841306
 H        -2.905473        -1.493998         0.322998
 H        -1.668718        -0.267548         2.976441
