19
Iteration:  2072charge 0 multiplicity 1
 O         0.266233        -0.254876         0.384103
 C        -0.838895         0.296535         0.938642
 C        -1.956704         0.915391         0.108296
 C        -2.445278         0.970340         1.651049
 C        -1.058137         1.498708         1.967588
 C        -3.910218         0.822227         1.946819
 O        -4.162588        -0.537207         1.331236
 C        -2.926536        -1.348374         1.355862
 C        -1.845336        -0.459933         1.757136
 H         1.136833        -0.025887         0.963052
 H        -1.488723         1.778436        -0.364355
 H        -2.545198         0.224728        -0.587601
 H        -0.875340         2.591301         1.688279
 H        -0.650117         1.201801         2.899140
 H        -3.994857         0.704767         3.046924
 H        -4.606243         1.614899         1.647317
 H        -3.154727        -2.155742         2.007623
 H        -2.918837        -1.786891         0.401459
 H        -1.462060        -0.528676         2.734648
