19
Iteration:  1756
 O         0.253453        -0.233570         0.397298
 C        -0.859245         0.286083         0.982683
 C        -1.970355         0.880880         0.122639
 C        -2.466795         1.027228         1.617011
 C        -0.905999         1.450901         1.916849
 C        -3.866365         0.803428         1.937433
 O        -4.217112        -0.524455         1.271425
 C        -2.888522        -1.455945         1.384673
 C        -1.913261        -0.415022         1.920226
 H         0.736460         0.679340         0.011853
 H        -1.638293         1.851602        -0.282716
 H        -2.544946         0.302589        -0.532593
 H        -0.839428         2.552184         1.391410
 H        -0.505619         1.314945         2.878693
 H        -3.995160         0.807726         3.037650
 H        -4.594589         1.429773         1.479144
 H        -3.119787        -2.236373         2.021453
 H        -2.734998        -1.789251         0.347179
 H        -1.572029        -0.436161         2.963964
