19
Iteration:  3515
 O         0.522173        -0.146704         0.511338
 C        -0.774090         0.294434         0.910866
 C        -1.935078         0.673358        -0.068187
 C        -2.508454         1.028823         1.377864
 C        -1.131142         1.638712         1.791908
 C        -3.883225         0.811236         2.014882
 O        -4.226321        -0.546774         1.733183
 C        -3.117441        -1.397450         1.368005
 C        -1.810542        -0.508165         1.712922
 H         1.095231         0.517804         0.525882
 H        -1.662941         1.555330        -0.799821
 H        -2.391119        -0.094071        -0.626651
 H        -1.003395         2.694615         1.462202
 H        -0.926651         1.576423         2.852631
 H        -3.805042         0.959197         3.130590
 H        -4.755496         1.415138         1.647578
 H        -3.119814        -2.248829         2.091704
 H        -3.145429        -1.842574         0.349891
 H        -1.764163        -0.645052         2.756360
