19
Iteration:  4017charge 0 multiplicity 1
 O         0.371678        -0.185925         0.461132
 C        -0.777161         0.299439         0.955236
 C        -1.917598         0.825664        -0.092911
 C        -2.484601         0.904721         1.369811
 C        -0.975894         1.635112         1.737297
 C        -3.964549         0.771711         1.672259
 O        -4.158326        -0.670655         1.963329
 C        -3.024922        -1.377422         1.503371
 C        -1.893689        -0.390944         1.884203
 H         0.885899         0.716679         0.204483
 H        -1.829421         1.772079        -0.519743
 H        -2.368157         0.144387        -0.872608
 H        -0.631987         2.509350         1.137357
 H        -0.804875         1.685647         2.835800
 H        -4.390460         1.329297         2.525672
 H        -4.439846         0.870869         0.704937
 H        -3.102932        -2.224448         2.113273
 H        -3.084866        -1.514013         0.412967
 H        -1.851137        -0.330196         2.933286
