19
Iteration:  1774
 O         0.323345        -0.265069         0.413099
 C        -0.772959         0.317561         0.927463
 C        -1.952481         0.900578         0.075304
 C        -2.454690         0.959539         1.602937
 C        -1.026173         1.580440         1.979295
 C        -3.926696         0.753215         1.922876
 O        -4.186953        -0.522613         1.373369
 C        -3.013186        -1.300185         1.397479
 C        -1.818912        -0.541183         1.829081
 H         0.860783         0.364167        -0.232370
 H        -1.803092         1.932372        -0.314229
 H        -2.455967         0.172949        -0.602547
 H        -0.733257         2.527992         1.572333
 H        -0.751403         1.372034         3.046349
 H        -4.170205         0.748522         2.998992
 H        -4.571433         1.505157         1.419192
 H        -3.294086        -2.181632         2.081455
 H        -2.864728        -1.798110         0.390935
 H        -1.486410        -0.797530         2.839558
