19
Iteration:  1191charge 0 multiplicity 1
 O         0.350255        -0.217056         0.352225
 C        -0.828422         0.257307         0.941672
 C        -1.989347         0.881336         0.174209
 C        -2.410284         0.882963         1.603972
 C        -1.099071         1.494679         2.007088
 C        -3.862190         0.805412         1.956797
 O        -4.120536        -0.419232         1.281921
 C        -3.060469        -1.306267         1.302166
 C        -1.840789        -0.532619         1.795531
 H         0.999499         0.204958         1.098579
 H        -1.833165         1.870808        -0.246327
 H        -2.662113         0.283748        -0.487368
 H        -0.937846         2.524400         1.742514
 H        -0.808337         1.305247         3.122833
 H        -4.022342         0.691185         3.002584
 H        -4.538443         1.566464         1.530776
 H        -3.203965        -2.090016         2.150974
 H        -2.886769        -1.840950         0.365836
 H        -1.362556        -0.842886         2.777065
