19
Iteration:  4355charge 0 multiplicity 1
 O         0.422195        -0.319929         0.556117
 C        -0.833247         0.439096         0.868178
 C        -1.935785         0.804978        -0.110211
 C        -2.468791         0.936391         1.422126
 C        -1.208589         1.648149         1.884371
 C        -3.934730         0.809437         1.685641
 O        -4.139692        -0.607741         1.895435
 C        -2.977995        -1.380273         1.462268
 C        -1.790639        -0.407761         1.719393
 H         0.896760         0.210494        -0.173311
 H        -1.744815         1.785113        -0.653590
 H        -2.356016         0.071634        -0.761420
 H        -0.765644         2.623464         1.803655
 H        -0.943474         1.267779         2.847646
 H        -4.201294         1.348998         2.675686
 H        -4.715017         1.178866         1.025958
 H        -2.868007        -2.145592         2.177223
 H        -3.202917        -1.798616         0.494794
 H        -1.487999        -0.619640         2.770568
