19
Iteration:  2517charge 0 multiplicity 1
 O         0.369593        -0.285613         0.398969
 C        -0.747921         0.354614         0.953523
 C        -1.848210         0.957650         0.063897
 C        -2.455196         0.918762         1.460657
 C        -1.095347         1.518298         2.019419
 C        -3.961288         0.863825         1.836853
 O        -4.214202        -0.664116         1.770926
 C        -2.992603        -1.346127         1.244252
 C        -1.886844        -0.425943         1.675092
 H         1.203159        -0.113335         0.831470
 H        -1.781013         1.914748        -0.372117
 H        -2.258687         0.353159        -0.756034
 H        -1.123350         2.591284         1.684502
 H        -0.745219         1.389293         3.018067
 H        -4.395330         1.306559         2.729859
 H        -4.442300         1.244652         0.907826
 H        -2.928795        -2.277260         1.844137
 H        -3.168453        -1.480953         0.201217
 H        -1.665522        -0.548991         2.753007
