19
Iteration:  1593
 O         0.417937        -0.303929         0.520681
 C        -0.775123         0.345069         0.890125
 C        -1.809627         0.991079        -0.019052
 C        -2.476137         1.022818         1.484565
 C        -0.985665         1.478101         1.998785
 C        -4.038141         0.832251         1.830783
 O        -4.175427        -0.731204         1.882127
 C        -3.080109        -1.279470         1.179919
 C        -1.949360        -0.432035         1.648122
 H         1.212835         0.379097         0.426331
 H        -1.500744         1.992977        -0.379508
 H        -2.152892         0.304501        -0.798057
 H        -0.758428         2.477862         1.610292
 H        -0.759475         1.232802         2.957027
 H        -4.538179         1.086554         2.820500
 H        -4.593922         1.254972         1.006757
 H        -2.934531        -2.310940         1.577985
 H        -3.227792        -1.391733         0.074671
 H        -1.924846        -0.682290         2.713989
