19
Iteration:  3268
 O         0.394159        -0.301657         0.458944
 C        -0.793905         0.374370         0.892315
 C        -1.988130         0.774400         0.049175
 C        -2.514178         1.022511         1.505709
 C        -0.954822         1.679205         1.731422
 C        -4.114645         0.723112         1.887556
 O        -4.230277        -0.644240         1.485837
 C        -2.852517        -1.333794         1.588522
 C        -1.781121        -0.324368         1.944656
 H         0.415960        -0.150140        -0.610555
 H        -1.696682         1.680530        -0.563590
 H        -2.525419         0.056102        -0.686477
 H        -0.540263         2.513036         1.185809
 H        -0.591734         1.474413         2.708998
 H        -4.311790         0.968875         2.987653
 H        -4.792143         1.315897         1.268201
 H        -3.139939        -1.959592         2.418108
 H        -2.841705        -1.910861         0.654138
 H        -1.274701        -0.555964         2.934039
