19
Iteration:  4688charge 0 multiplicity 1
 O         0.389378        -0.124192         0.484916
 C        -0.874133         0.328640         0.888840
 C        -1.891395         0.806335        -0.057793
 C        -2.493817         0.996567         1.475375
 C        -1.025531         1.566362         1.688464
 C        -3.875422         0.748894         1.940835
 O        -4.208740        -0.593284         1.564498
 C        -2.973686        -1.358811         1.563392
 C        -1.901273        -0.406975         1.819157
 H         0.532015        -0.894466         1.167532
 H        -1.774296         1.839610        -0.521897
 H        -2.289667         0.086186        -0.746649
 H        -0.717987         2.491708         1.138346
 H        -0.828111         1.614786         2.763427
 H        -3.776176         0.646263         3.038860
 H        -4.743124         1.406456         1.558512
 H        -3.095339        -2.277384         2.129965
 H        -2.832438        -1.795319         0.541406
 H        -1.610978        -0.517937         2.915387
