19
Iteration:  2826charge 0 multiplicity 1
 O         0.430987        -0.234160         0.579151
 C        -0.854223         0.337840         0.923116
 C        -1.949940         0.822688        -0.026199
 C        -2.470961         1.110365         1.443324
 C        -1.067450         1.541356         1.899547
 C        -3.975251         0.774381         1.688065
 O        -4.106389        -0.605088         1.853518
 C        -3.007055        -1.349124         1.350378
 C        -1.862351        -0.505683         1.745773
 H         0.690203         0.318538        -0.311924
 H        -1.690546         1.739621        -0.554478
 H        -2.522315         0.199372        -0.788350
 H        -0.720998         2.423608         1.413108
 H        -0.674241         1.473544         2.961171
 H        -4.188641         1.177362         2.678378
 H        -4.722745         1.241561         1.003680
 H        -3.022179        -2.375698         1.870976
 H        -3.116664        -1.606131         0.296933
 H        -1.642170        -0.664417         2.838330
