19
Iteration:     9
 O         0.426455        -0.070232         0.476071
 C        -0.788154         0.299768         0.931245
 C        -1.974515         0.722784        -0.011159
 C        -2.425037         0.889569         1.460901
 C        -1.080429         1.604899         1.813362
 C        -3.834218         0.847716         1.887992
 O        -4.189437        -0.531182         1.595056
 C        -3.037351        -1.387519         1.432362
 C        -1.914875        -0.510722         1.750308
 H         0.937094        -0.399846         1.352811
 H        -2.067473         1.615102        -0.619370
 H        -2.572459         0.011090        -0.423679
 H        -0.909871         2.557132         1.370123
 H        -0.672477         1.336397         2.865892
 H        -4.008752         1.040997         2.890396
 H        -4.535165         1.496092         1.430959
 H        -3.088070        -2.163859         2.136167
 H        -3.091581        -1.697966         0.407633
 H        -1.792038        -0.481324         2.863923
