19
Iteration:  4286
 O         0.556963        -0.161179         0.589491
 C        -0.770173         0.291978         0.864370
 C        -1.937439         0.764633        -0.043567
 C        -2.517643         0.924975         1.357055
 C        -1.225034         1.657321         1.841738
 C        -3.909014         0.845385         1.771658
 O        -4.170293        -0.597770         1.923273
 C        -3.077181        -1.399911         1.414001
 C        -1.851878        -0.466602         1.666386
 H         0.878284         0.341196        -0.329172
 H        -1.777107         1.604120        -0.695778
 H        -2.453913        -0.073386        -0.611012
 H        -0.871606         2.679842         1.659670
 H        -0.970866         1.384048         2.879982
 H        -4.103802         1.360337         2.794570
 H        -4.529333         1.449479         1.108595
 H        -3.024894        -2.334643         2.057199
 H        -3.155080        -1.755770         0.406677
 H        -1.382199        -0.643532         2.681292
