19
Iteration:   977
 O         0.430028        -0.226820         0.536071
 C        -0.810548         0.358483         0.925709
 C        -1.979678         0.952815        -0.003337
 C        -2.427401         0.880810         1.562873
 C        -0.962441         1.479296         1.990409
 C        -3.857856         0.889689         1.825073
 O        -4.268825        -0.592909         1.687199
 C        -3.092833        -1.360167         1.172039
 C        -1.900196        -0.498619         1.694855
 H         1.159871         0.320891         0.766731
 H        -1.849687         1.922677        -0.457485
 H        -2.535364         0.189861        -0.617248
 H        -0.717172         2.508067         1.741961
 H        -0.609814         1.108680         2.980615
 H        -4.120301         1.052775         2.856754
 H        -4.490090         1.433506         1.182547
 H        -2.929535        -2.239966         1.766083
 H        -3.169334        -1.518310         0.110681
 H        -1.617468        -0.808925         2.689717
