19
Iteration:  4492
 O         0.293250        -0.269955         0.330716
 C        -0.874184         0.333535         0.947243
 C        -1.977746         0.838225         0.013428
 C        -2.426314         1.027144         1.496344
 C        -1.074037         1.664731         1.811050
 C        -3.940068         0.780857         1.711366
 O        -4.127367        -0.646464         1.630959
 C        -2.855813        -1.397072         1.533441
 C        -1.834352        -0.366852         1.948816
 H         0.595855        -0.989617         1.107143
 H        -1.834242         1.839333        -0.403718
 H        -2.648080         0.250147        -0.646909
 H        -0.970587         2.713826         1.383926
 H        -0.831422         1.537405         2.913334
 H        -4.450568         1.262807         2.534379
 H        -4.446437         1.317728         0.850434
 H        -2.887023        -2.088758         2.430605
 H        -2.659994        -1.955307         0.578848
 H        -1.397888        -0.507693         2.920584
