19
Iteration:  1908
 O         0.414700        -0.257058         0.466457
 C        -0.793932         0.302823         0.904778
 C        -1.864817         1.002023         0.011019
 C        -2.462209         0.941142         1.486439
 C        -0.943977         1.424934         2.030318
 C        -3.984654         0.790902         1.784089
 O        -4.286628        -0.663423         1.804949
 C        -3.006876        -1.299822         1.249538
 C        -1.920301        -0.405049         1.700342
 H         1.147243         0.507685         0.511267
 H        -1.580166         2.013394        -0.358003
 H        -2.370649         0.338310        -0.636463
 H        -0.826538         2.517501         1.678605
 H        -0.764545         1.372586         3.030146
 H        -4.308779         1.362051         2.672775
 H        -4.506128         1.232764         0.915644
 H        -2.860777        -2.294483         1.636068
 H        -3.303799        -1.395934         0.124220
 H        -1.624548        -0.736525         2.695086
