19
Iteration:   396charge 0 multiplicity 1
 O         0.430152        -0.200102         0.377734
 C        -0.794095         0.335699         0.945174
 C        -1.849600         0.987662        -0.006834
 C        -2.451537         0.906149         1.471564
 C        -1.089106         1.580452         1.953603
 C        -3.960721         0.822543         1.730135
 O        -4.235767        -0.604069         1.774208
 C        -3.046673        -1.369501         1.367149
 C        -1.856800        -0.536005         1.798566
 H         0.763716        -1.066032         1.000186
 H        -1.680587         1.961901        -0.409503
 H        -2.329823         0.235578        -0.716379
 H        -0.853360         2.565177         1.578131
 H        -0.671145         1.495333         3.013665
 H        -4.225622         1.231960         2.662917
 H        -4.533216         1.348668         0.981196
 H        -3.281544        -2.324428         1.817432
 H        -2.879460        -1.405277         0.271189
 H        -1.505102        -0.614828         2.860607
