19
Iteration:  4254
 O         0.436628        -0.091497         0.547630
 C        -0.848508         0.308466         0.879220
 C        -1.922957         0.753175        -0.042855
 C        -2.468127         0.865462         1.383233
 C        -1.093709         1.596516         1.702454
 C        -3.855366         0.812632         1.925526
 O        -4.277412        -0.582658         1.633819
 C        -3.037411        -1.385291         1.548363
 C        -1.828196        -0.440416         1.800040
 H         0.920645         0.607119         0.300253
 H        -1.728200         1.694849        -0.513669
 H        -2.325263        -0.062016        -0.690022
 H        -0.859712         2.563290         1.309281
 H        -0.656695         1.393095         2.668090
 H        -3.921227         0.847864         3.057193
 H        -4.553997         1.533688         1.489111
 H        -3.204575        -2.159438         2.317658
 H        -2.883180        -1.839940         0.606678
 H        -1.357257        -0.634946         2.801696
