19
Iteration:  4555charge 0 multiplicity 1
 O         0.566092         0.027759         0.539530
 C        -0.819955         0.258616         0.879272
 C        -1.864705         0.746178        -0.150307
 C        -2.524549         0.996421         1.279080
 C        -1.117867         1.512654         1.702473
 C        -3.790538         0.810403         1.953990
 O        -4.260285        -0.538303         1.849212
 C        -3.138189        -1.445532         1.452672
 C        -1.932705        -0.542015         1.780592
 H         1.090997         0.263441         1.483730
 H        -1.618446         1.655631        -0.750749
 H        -2.404777         0.042623        -0.896811
 H        -0.688207         2.394164         1.211404
 H        -1.160156         1.509170         2.807528
 H        -3.733522         1.184807         3.031303
 H        -4.764950         1.255622         1.422894
 H        -3.239708        -2.292136         2.083582
 H        -3.289543        -1.852601         0.415518
 H        -1.488480        -0.742970         2.800892
