19
Iteration:   445
 O         0.514778        -0.272668         0.614944
 C        -0.802246         0.335188         0.875902
 C        -1.929340         0.867583        -0.037209
 C        -2.468220         0.962747         1.401111
 C        -1.134526         1.500349         1.861136
 C        -3.915556         0.835860         1.879877
 O        -4.253046        -0.609306         1.823174
 C        -3.080954        -1.304531         1.235336
 C        -1.777796        -0.516616         1.701380
 H         1.178878         0.412231         0.547192
 H        -1.808778         1.952814        -0.399252
 H        -2.463197         0.422050        -0.867698
 H        -0.694943         2.547985         1.734621
 H        -1.021251         1.329920         2.925652
 H        -4.077569         1.359936         2.933195
 H        -4.655853         1.416782         1.214765
 H        -3.304441        -2.307963         1.604335
 H        -3.210945        -1.224580         0.161734
 H        -1.490846        -0.693009         2.735517
