19
Iteration:  2518
 O         0.372083        -0.287197         0.392289
 C        -0.740237         0.359272         0.953452
 C        -1.861028         0.950545         0.054089
 C        -2.452471         0.914009         1.465059
 C        -1.095026         1.520802         2.027176
 C        -3.960097         0.863962         1.835203
 O        -4.218488        -0.666970         1.771288
 C        -2.989618        -1.343654         1.247842
 C        -1.894769        -0.421620         1.669574
 H         1.250481        -0.134862         0.890771
 H        -1.750830         1.920305        -0.361578
 H        -2.267419         0.338301        -0.730188
 H        -1.119488         2.632852         1.672180
 H        -0.767923         1.389891         3.041038
 H        -4.382114         1.310186         2.739176
 H        -4.413776         1.268406         0.901484
 H        -2.901661        -2.288068         1.839588
 H        -3.167067        -1.443542         0.205286
 H        -1.687675        -0.570522         2.759944
