19
Iteration:  1771charge 0 multiplicity 1
 O         0.314249        -0.255311         0.402634
 C        -0.808691         0.308004         0.937995
 C        -1.947136         0.920322         0.078505
 C        -2.447433         0.930466         1.591576
 C        -1.007162         1.584544         1.976646
 C        -3.932552         0.751613         1.919220
 O        -4.188782        -0.513653         1.358920
 C        -3.008662        -1.327433         1.401677
 C        -1.818546        -0.515454         1.849805
 H         0.748718         0.343857        -0.107017
 H        -1.758346         1.912739        -0.386082
 H        -2.437884         0.130815        -0.586233
 H        -0.660996         2.488091         1.572448
 H        -0.652691         1.364522         3.036512
 H        -4.157218         0.719743         3.015820
 H        -4.560690         1.562072         1.436073
 H        -3.215429        -2.282786         2.055359
 H        -2.848487        -1.749383         0.411572
 H        -1.492769        -0.727500         2.896560
