19
Iteration:  2386charge 0 multiplicity 1
 O         0.361729        -0.173344         0.413562
 C        -0.792735         0.387291         0.940002
 C        -1.977119         0.989043         0.068125
 C        -2.422018         0.834270         1.590362
 C        -1.052373         1.541790         1.971437
 C        -3.882694         0.803726         1.940138
 O        -4.159810        -0.517520         1.395353
 C        -3.054407        -1.403650         1.354133
 C        -1.820079        -0.538444         1.744121
 H         0.618161        -1.112696         0.862055
 H        -2.049796         2.004151        -0.165924
 H        -2.495021         0.279404        -0.621986
 H        -0.909082         2.624173         1.530619
 H        -0.519698         1.485674         2.960986
 H        -4.020237         0.908628         3.046884
 H        -4.560238         1.471759         1.356194
 H        -3.288384        -2.174070         2.160201
 H        -3.067663        -1.935831         0.370091
 H        -1.585107        -0.575504         2.847045
