19
Iteration:   395charge 0 multiplicity 1
 O         0.437813        -0.199666         0.377120
 C        -0.791303         0.334967         0.942088
 C        -1.847393         0.981546        -0.012417
 C        -2.454593         0.888316         1.476766
 C        -1.094532         1.574777         1.962532
 C        -3.968572         0.824538         1.730452
 O        -4.235511        -0.600090         1.770922
 C        -3.044268        -1.357803         1.375837
 C        -1.852880        -0.527951         1.796355
 H         0.728989        -1.057069         0.950516
 H        -1.680833         2.001564        -0.374051
 H        -2.364962         0.222622        -0.715655
 H        -0.872211         2.573976         1.560995
 H        -0.680812         1.483885         2.987996
 H        -4.198933         1.235138         2.653870
 H        -4.519471         1.353205         0.983963
 H        -3.274662        -2.305211         1.826443
 H        -2.871969        -1.440467         0.242969
 H        -1.527254        -0.607083         2.858240
