19
Iteration:   860
 O         0.371358        -0.134632         0.379273
 C        -0.840098         0.323333         0.926107
 C        -1.937879         0.880729         0.165006
 C        -2.411505         0.979670         1.678149
 C        -0.980231         1.459603         1.991109
 C        -3.961685         0.797055         1.892120
 O        -4.265914        -0.532076         1.312961
 C        -2.995531        -1.385629         1.401772
 C        -1.813936        -0.414889         1.735203
 H         0.557044        -1.055319         0.623682
 H        -1.652813         1.756070        -0.406875
 H        -2.595224         0.128698        -0.386001
 H        -0.628140         2.473039         1.571161
 H        -0.514096         1.209547         2.900085
 H        -4.235427         0.866768         3.012432
 H        -4.490069         1.658662         1.311697
 H        -3.021610        -2.139979         2.263536
 H        -2.984973        -1.845081         0.389744
 H        -1.502008        -0.768138         2.760259
