19
Iteration:   603
 O         0.419436        -0.232262         0.488157
 C        -0.834087         0.346168         0.904600
 C        -2.016102         0.876246         0.080335
 C        -2.396355         0.872352         1.601676
 C        -1.057826         1.492813         1.935265
 C        -3.891758         0.868636         1.927597
 O        -4.238045        -0.489586         1.368137
 C        -3.032288        -1.380787         1.372463
 C        -1.810021        -0.529419         1.806657
 H         1.161283         0.452361         0.387145
 H        -2.007423         1.897250        -0.360101
 H        -2.558806         0.219324        -0.590751
 H        -0.901074         2.522545         1.498539
 H        -0.461062         1.413310         2.898534
 H        -4.099660         1.025803         3.090513
 H        -4.546149         1.581031         1.426693
 H        -3.254378        -2.266769         1.945127
 H        -3.064360        -1.719241         0.302026
 H        -1.378543        -0.847624         2.754791
