19
Iteration:   646charge 0 multiplicity 1
 O         0.426525        -0.121964         0.563299
 C        -0.788812         0.368347         0.895830
 C        -1.809716         0.888319         0.002832
 C        -2.429621         0.907347         1.482724
 C        -1.025108         1.470371         1.945418
 C        -3.845493         0.831686         1.910200
 O        -4.316304        -0.545390         1.644855
 C        -3.115835        -1.411205         1.278115
 C        -1.943558        -0.567264         1.756902
 H         0.643854         0.144318        -0.232914
 H        -1.676022         1.858899        -0.571631
 H        -2.132324         0.169057        -0.778059
 H        -0.696681         2.548058         1.554313
 H        -0.812349         1.189093         3.052505
 H        -3.943819         1.047445         3.056950
 H        -4.484357         1.579530         1.441395
 H        -3.345317        -2.415023         1.547456
 H        -2.942873        -1.396506         0.196879
 H        -1.547368        -0.615875         2.749347
