19
Iteration:   639charge 0 multiplicity 1
 O         0.464326        -0.116637         0.573981
 C        -0.801979         0.338745         0.913277
 C        -1.892671         0.873385         0.003880
 C        -2.448790         0.896950         1.482575
 C        -0.996977         1.445336         1.960025
 C        -3.833219         0.842279         1.892643
 O        -4.294916        -0.553865         1.590485
 C        -3.148432        -1.339711         1.298075
 C        -1.902315        -0.541288         1.752169
 H         0.727558         0.333739        -0.268881
 H        -1.819992         1.859579        -0.429979
 H        -2.452415         0.180275        -0.578344
 H        -0.645003         2.292830         1.536863
 H        -0.672403         1.183436         2.995011
 H        -3.848949         1.025382         2.991418
 H        -4.558211         1.455438         1.350511
 H        -3.091311        -2.388443         1.732050
 H        -3.138358        -1.444722         0.175632
 H        -1.588390        -0.673333         2.840536
