19
Iteration:  2210charge 0 multiplicity 1
 O         0.427946        -0.266594         0.423309
 C        -0.730535         0.320088         0.949394
 C        -1.943081         1.033454         0.040098
 C        -2.455076         1.046534         1.500367
 C        -0.969543         1.475461         2.059779
 C        -4.041367         0.802707         1.781789
 O        -4.194209        -0.680478         1.830528
 C        -2.985655        -1.286459         1.158221
 C        -1.925467        -0.429499         1.674298
 H         0.717112        -0.826522         1.037510
 H        -1.751102         1.996509        -0.473526
 H        -2.440177         0.354666        -0.614401
 H        -0.637026         2.475014         1.668003
 H        -0.608866         1.016333         2.937128
 H        -4.471800         1.366301         2.642212
 H        -4.735901         1.121171         0.950527
 H        -3.083557        -2.343635         1.612191
 H        -3.056799        -1.510149         0.052249
 H        -1.726553        -0.757015         2.767038
