19
Iteration:  4949
 O         0.388942        -0.385549         0.640439
 C        -0.833384         0.271938         0.783859
 C        -2.006246         0.841879        -0.076261
 C        -2.519516         0.952841         1.473447
 C        -1.160514         1.710754         1.767913
 C        -3.943763         0.844774         2.017443
 O        -4.170035        -0.615530         1.588663
 C        -2.863252        -1.340492         1.411943
 C        -1.770692        -0.412897         1.801331
 H         1.191506         0.286159         0.466640
 H        -1.922603         1.926167        -0.398219
 H        -2.509283         0.117475        -0.691737
 H        -1.048048         2.555917         1.094433
 H        -0.663401         1.873508         2.728275
 H        -4.294301         0.988329         3.061888
 H        -4.629576         1.480735         1.404055
 H        -2.965706        -2.274848         1.963601
 H        -2.698133        -1.545262         0.301028
 H        -1.463909        -0.544224         2.854165
