19
Iteration:  3053
 O         0.438099        -0.100182         0.514750
 C        -0.837826         0.284450         0.928412
 C        -1.899607         0.721896        -0.040859
 C        -2.436056         0.919481         1.435927
 C        -1.081888         1.624845         1.671351
 C        -3.830826         0.832893         1.908556
 O        -4.360355        -0.633985         1.676774
 C        -3.046687        -1.381498         1.466965
 C        -1.817233        -0.451454         1.880096
 H         1.091494         0.660861         0.329030
 H        -1.691733         1.505476        -0.666207
 H        -2.513376        -0.049882        -0.648078
 H        -0.895355         2.639178         1.214332
 H        -0.674710         1.533784         2.737787
 H        -3.913348         1.159260         2.943570
 H        -4.445518         1.511049         1.266253
 H        -3.031765        -2.326097         2.041125
 H        -3.038949        -1.677476         0.434391
 H        -1.404064        -0.537474         2.885069
