19
Iteration:  4507charge 0 multiplicity 1
 O         0.303731        -0.249041         0.430299
 C        -0.831876         0.235089         0.898882
 C        -2.012737         0.809187         0.059256
 C        -2.468549         0.951758         1.514599
 C        -1.188132         1.711849         1.806321
 C        -3.895940         0.899483         1.722263
 O        -4.087186        -0.633086         1.692644
 C        -2.869412        -1.381004         1.483662
 C        -1.801138        -0.409952         1.823448
 H         0.810808        -0.644544         1.133858
 H        -1.777324         1.690207        -0.600063
 H        -2.465337         0.076239        -0.577910
 H        -0.990136         2.547696         1.148824
 H        -0.729546         1.808333         2.773793
 H        -4.135374         1.170528         2.755476
 H        -4.529110         1.351467         1.004404
 H        -3.000716        -2.410765         1.966113
 H        -2.921476        -1.626909         0.400363
 H        -1.580252        -0.362204         2.930121
