19
Iteration:  1590
 O         0.423956        -0.292138         0.525262
 C        -0.795406         0.337133         0.901626
 C        -1.821097         0.994081         0.024454
 C        -2.477139         1.026953         1.485865
 C        -1.002779         1.501751         1.965718
 C        -4.021699         0.837549         1.837591
 O        -4.175707        -0.720202         1.877992
 C        -3.067030        -1.286883         1.172644
 C        -1.923732        -0.482135         1.630564
 H         1.110398         0.244159         0.481617
 H        -1.466062         1.961553        -0.372492
 H        -2.222456         0.351002        -0.842310
 H        -0.714255         2.502196         1.545108
 H        -0.853580         1.216600         3.000366
 H        -4.455821         1.215785         2.841763
 H        -4.573245         1.257262         0.984570
 H        -2.926003        -2.265027         1.515197
 H        -3.247517        -1.473877         0.046395
 H        -1.983447        -0.677757         2.740583
