19
Iteration:  2109
 O         0.506527        -0.071603         0.435464
 C        -0.782227         0.279978         0.917104
 C        -1.922539         0.858927         0.067390
 C        -2.426166         0.891074         1.550332
 C        -1.090556         1.465438         1.900184
 C        -3.834290         0.850568         1.988756
 O        -4.312958        -0.495070         1.489572
 C        -3.149709        -1.380382         1.321552
 C        -1.872271        -0.538545         1.707358
 H         1.136382        -0.060202         1.198374
 H        -1.770586         1.860549        -0.415473
 H        -2.448758         0.205260        -0.624687
 H        -0.901381         2.426136         1.504475
 H        -0.573763         1.228645         2.899941
 H        -3.833131         0.645674         3.104279
 H        -4.588470         1.587347         1.670663
 H        -3.061924        -2.223925         2.013511
 H        -3.078252        -1.645822         0.200740
 H        -1.715037        -0.791376         2.805773
