19
Iteration:  4908
 O         0.501143        -0.102065         0.431074
 C        -0.773980         0.284684         0.949080
 C        -1.939468         0.718743        -0.023683
 C        -2.434481         0.951321         1.454189
 C        -1.088549         1.557554         1.864898
 C        -3.932413         0.915430         1.826806
 O        -4.238956        -0.595140         1.647249
 C        -3.040001        -1.453761         1.524948
 C        -1.894134        -0.456032         1.793665
 H         0.747402         0.628138        -0.157012
 H        -1.705366         1.620383        -0.696618
 H        -2.595980        -0.095121        -0.480102
 H        -0.722326         2.529269         1.542268
 H        -0.919266         1.385208         2.951653
 H        -4.135444         1.356252         2.788679
 H        -4.634323         1.427539         1.093326
 H        -3.034440        -2.315602         2.255057
 H        -3.021135        -1.820156         0.467830
 H        -1.602147        -0.494589         2.907346
