19
Iteration:  3251charge 0 multiplicity 1
 O         0.366527        -0.339465         0.445012
 C        -0.776597         0.307584         0.939402
 C        -1.977742         0.735822         0.016144
 C        -2.477146         1.019900         1.460271
 C        -1.112931         1.726445         1.774802
 C        -3.891338         0.777836         1.925003
 O        -4.172043        -0.596660         1.492759
 C        -2.922406        -1.391246         1.554098
 C        -1.867571        -0.348260         1.888812
 H         0.659508         0.305631        -0.302214
 H        -1.940666         1.554891        -0.671126
 H        -2.390830        -0.153712        -0.520285
 H        -1.107464         2.671160         1.173285
 H        -0.835089         1.864388         2.873732
 H        -3.897573         0.782703         3.000642
 H        -4.669800         1.453139         1.523004
 H        -2.905235        -2.178115         2.361747
 H        -2.776873        -1.792648         0.529696
 H        -1.605381        -0.189328         2.925580
