19
Iteration:  4628
 O         0.289577        -0.169091         0.358997
 C        -0.819742         0.311424         1.019482
 C        -1.880622         0.796965         0.009607
 C        -2.454336         1.000469         1.454339
 C        -1.069151         1.606419         1.766556
 C        -3.960767         0.795493         1.692114
 O        -4.192092        -0.625456         1.832709
 C        -2.905105        -1.312924         1.397749
 C        -1.882544        -0.467463         1.911787
 H         1.038096        -0.655410         0.950156
 H        -1.452271         1.673317        -0.438712
 H        -2.264430         0.101305        -0.812045
 H        -0.778381         2.549796         1.332209
 H        -0.797940         1.509009         2.828346
 H        -4.492939         1.167188         2.552926
 H        -4.456281         1.171958         0.872824
 H        -2.758989        -2.283334         1.939240
 H        -2.855792        -1.418161         0.287259
 H        -1.747864        -0.580702         3.008059
