19
Iteration:  1318charge 0 multiplicity 1
 O         0.397678        -0.194767         0.488251
 C        -0.765660         0.289731         0.926756
 C        -1.840115         1.120214        -0.012067
 C        -2.441694         0.924203         1.467681
 C        -1.062624         1.400469         2.082413
 C        -3.911912         0.788854         1.772644
 O        -4.182350        -0.642022         1.850524
 C        -3.133920        -1.314266         1.177561
 C        -1.904887        -0.518333         1.595453
 H         1.050795        -0.057499         1.281899
 H        -1.414972         2.084101        -0.351325
 H        -2.294227         0.482415        -0.754831
 H        -0.726488         2.564444         1.801529
 H        -0.815675         1.176382         3.145899
 H        -4.182539         1.278910         2.744599
 H        -4.575908         1.187785         1.019717
 H        -3.325757        -2.339828         1.469633
 H        -3.334186        -1.269540         0.049839
 H        -1.763273        -0.730876         2.652886
