19
Iteration:  2099charge 0 multiplicity 1
 O         0.476310        -0.159121         0.417121
 C        -0.723215         0.349361         0.937800
 C        -2.055701         0.865006         0.034209
 C        -2.415670         0.881769         1.510243
 C        -1.069442         1.498068         1.975250
 C        -3.827255         0.763353         1.972895
 O        -4.237597        -0.478594         1.454012
 C        -3.115743        -1.342857         1.337070
 C        -1.887408        -0.505889         1.712656
 H         1.264472        -0.052345         1.108347
 H        -1.785329         1.819856        -0.483131
 H        -2.515674         0.111600        -0.565959
 H        -0.877993         2.548736         1.864431
 H        -0.919276         1.233943         3.095661
 H        -3.836661         0.811962         3.131488
 H        -4.507622         1.585953         1.674104
 H        -3.387019        -2.255122         1.961575
 H        -3.198060        -1.814674         0.267773
 H        -1.589626        -0.604137         2.831861
