19
Iteration:  4913charge 0 multiplicity 1
 O         0.477171        -0.130953         0.444431
 C        -0.816714         0.283575         0.951920
 C        -1.948191         0.685704         0.001049
 C        -2.446077         0.954603         1.445938
 C        -1.046602         1.623042         1.881214
 C        -3.888077         0.917523         1.830047
 O        -4.209961        -0.612824         1.635652
 C        -3.050920        -1.409683         1.480453
 C        -1.903509        -0.483465         1.812167
 H         0.769692         0.754725        -0.053989
 H        -1.923969         1.471846        -0.707716
 H        -2.620760        -0.016337        -0.443114
 H        -0.626579         2.545428         1.404228
 H        -0.833437         1.581677         2.957021
 H        -4.148895         1.222585         2.897619
 H        -4.628132         1.155533         1.085166
 H        -3.009742        -2.319108         2.069320
 H        -3.039943        -1.719686         0.445375
 H        -1.675960        -0.351925         2.837028
