19
Iteration:  1080
 O         0.520639        -0.063289         0.526777
 C        -0.818003         0.269319         0.936821
 C        -1.896018         0.926739         0.027699
 C        -2.430145         0.915403         1.459167
 C        -1.083715         1.465251         1.998688
 C        -3.850623         0.853144         1.905678
 O        -4.289107        -0.565501         1.644105
 C        -3.115323        -1.301143         1.188194
 C        -1.895073        -0.574459         1.733525
 H         0.487674        -1.080057         0.499711
 H        -1.445117         1.914722        -0.198711
 H        -2.402349         0.454029        -0.766588
 H        -0.751683         2.426752         1.442982
 H        -0.482427         1.329087         2.910571
 H        -3.821689         0.850144         2.939393
 H        -4.778418         1.413874         1.623166
 H        -3.367397        -2.362013         1.463258
 H        -3.054296        -1.419818         0.146615
 H        -1.689053        -0.824093         2.812608
