19
Iteration:  4270
 O         0.495168        -0.130869         0.579015
 C        -0.769230         0.355304         0.845063
 C        -1.970599         0.761293        -0.142991
 C        -2.444985         0.858144         1.405198
 C        -1.244080         1.545503         1.835385
 C        -3.856361         0.879989         1.888893
 O        -4.201788        -0.507229         1.752281
 C        -3.008769        -1.437003         1.500901
 C        -1.811974        -0.550050         1.751203
 H         0.937609         0.526072        -0.013802
 H        -1.933912         1.779595        -0.637108
 H        -2.384109         0.045774        -0.846309
 H        -1.243056         2.517197         1.277777
 H        -1.096687         1.598257         2.945176
 H        -3.799300         1.216172         2.903693
 H        -4.566824         1.339620         1.140983
 H        -3.076396        -2.205983         2.277409
 H        -3.292476        -1.798562         0.451835
 H        -1.627595        -0.486722         2.806538
