19
Iteration:  1038charge 0 multiplicity 1
 O         0.474635        -0.230205         0.587241
 C        -0.802919         0.355725         0.970732
 C        -1.926350         0.989243         0.064333
 C        -2.466525         0.948746         1.516891
 C        -1.072151         1.486899         2.029414
 C        -3.876085         0.822703         1.796242
 O        -4.193172        -0.567549         1.723792
 C        -3.132044        -1.325374         1.165498
 C        -1.848396        -0.572459         1.605295
 H         0.563528        -0.390985        -0.483566
 H        -1.777699         1.897992        -0.584499
 H        -2.545370         0.277375        -0.442797
 H        -0.891769         2.558385         1.811320
 H        -0.743178         1.280922         3.127919
 H        -3.972156         1.201113         2.870273
 H        -4.485822         1.573790         1.194620
 H        -3.028476        -2.316448         1.619443
 H        -3.262855        -1.637039         0.102209
 H        -1.529661        -0.862511         2.641293
