19
Iteration:  3365charge 0 multiplicity 1
 O         0.464765        -0.109831         0.620294
 C        -0.867568         0.246531         0.853904
 C        -2.009878         0.727480        -0.057295
 C        -2.468367         0.916377         1.451317
 C        -1.097042         1.518996         1.640903
 C        -3.835529         0.824423         1.965788
 O        -4.211721        -0.504665         1.711339
 C        -3.001432        -1.374725         1.418528
 C        -1.824292        -0.466037         1.755891
 H         0.976870         0.793178         0.544092
 H        -1.885030         1.655917        -0.570192
 H        -2.529872         0.002009        -0.682047
 H        -0.988264         2.435752         1.025734
 H        -0.814641         1.598892         2.685174
 H        -3.930576         0.937148         3.031655
 H        -4.524884         1.480176         1.447884
 H        -3.109866        -2.119859         2.229666
 H        -3.095310        -1.812604         0.410970
 H        -1.563417        -0.573909         2.828726
