19
Iteration:  4242charge 0 multiplicity 1
 O         0.468246        -0.142173         0.500682
 C        -0.799149         0.268231         0.866931
 C        -1.995664         0.700340        -0.029795
 C        -2.463388         1.079593         1.484735
 C        -0.991167         1.601481         1.710749
 C        -3.935263         0.731203         1.978511
 O        -4.258123        -0.591877         1.524613
 C        -3.027657        -1.411209         1.541312
 C        -1.853508        -0.404959         1.832435
 H         0.963979         0.779807         0.454828
 H        -1.827606         1.549577        -0.665729
 H        -2.528128        -0.081678        -0.669692
 H        -0.739737         2.508136         1.161615
 H        -0.718442         1.700431         2.783919
 H        -3.915969         0.951423         3.107930
 H        -4.772692         1.294686         1.528604
 H        -3.025582        -2.217648         2.340663
 H        -3.099008        -1.911107         0.605595
 H        -1.577051        -0.324435         2.926284
