19
Iteration:  1075charge 0 multiplicity 1
 O         0.527428        -0.052639         0.551639
 C        -0.846686         0.236862         0.929993
 C        -1.875664         0.968935         0.025744
 C        -2.469223         0.937608         1.453572
 C        -1.036841         1.431397         1.956890
 C        -3.890305         0.783726         1.886793
 O        -4.295655        -0.590587         1.652282
 C        -3.096186        -1.243007         1.209233
 C        -1.881353        -0.568998         1.767480
 H         0.502449        -1.065544         0.349687
 H        -1.406618         1.902707        -0.262671
 H        -2.547096         0.498667        -0.767750
 H        -0.648702         2.283971         1.425057
 H        -0.522960         1.266143         2.921233
 H        -3.774549         0.877075         3.052352
 H        -4.626575         1.479897         1.483744
 H        -3.382259        -2.252863         1.541612
 H        -3.113043        -1.205831         0.033263
 H        -1.701553        -0.760366         2.811152
