19
Iteration:  4451
 O         0.382700        -0.147666         0.344918
 C        -0.814538         0.307995         0.920749
 C        -1.981795         0.772144        -0.010910
 C        -2.481549         1.042534         1.510036
 C        -1.069663         1.624082         1.745921
 C        -3.905897         0.746253         1.846863
 O        -4.189969        -0.583090         1.436505
 C        -2.985150        -1.445846         1.707099
 C        -1.836422        -0.364342         1.916698
 H         0.949316        -0.652410         0.818977
 H        -1.827311         1.757343        -0.502975
 H        -2.340193         0.012204        -0.646701
 H        -0.586741         2.497000         1.279340
 H        -0.752308         1.590853         2.779004
 H        -4.135705         0.800270         2.925735
 H        -4.567277         1.345670         1.291089
 H        -3.133940        -2.031796         2.663126
 H        -2.908616        -2.127722         0.843811
 H        -1.551554        -0.402253         2.995869
