19
Iteration:  4298charge 0 multiplicity 1
 O         0.492771        -0.156646         0.583974
 C        -0.786203         0.355603         0.893774
 C        -1.876059         0.763911        -0.106567
 C        -2.458820         0.967187         1.398931
 C        -1.102570         1.567441         1.830175
 C        -3.997130         0.814138         1.715803
 O        -4.186556        -0.680440         1.999535
 C        -3.046351        -1.311304         1.357844
 C        -1.869015        -0.425074         1.735210
 H         0.729213         0.157652        -0.243585
 H        -1.673631         1.679198        -0.669474
 H        -2.399808        -0.005213        -0.693160
 H        -0.918994         2.512354         1.332844
 H        -0.794082         1.509294         2.861443
 H        -4.176247         1.290446         2.763261
 H        -4.748730         1.064114         0.990972
 H        -2.921811        -2.288115         1.857517
 H        -3.299059        -1.454206         0.336337
 H        -1.724053        -0.573434         2.846667
