19
Iteration:   392charge 0 multiplicity 1
 O         0.457841        -0.199504         0.380155
 C        -0.780273         0.330991         0.929404
 C        -1.845924         0.953981        -0.022776
 C        -2.461864         0.845924         1.491691
 C        -1.110153         1.556214         1.981131
 C        -3.981060         0.825826         1.729698
 O        -4.234629        -0.588010         1.759933
 C        -3.035727        -1.323573         1.390674
 C        -1.842133        -0.499393         1.790073
 H         0.604104        -0.965061         0.776533
 H        -1.683935         2.070976        -0.280564
 H        -2.414212         0.262131        -0.685659
 H        -0.931009         2.575776         1.518135
 H        -0.724843         1.436363         2.943905
 H        -4.160027         1.280118         2.731627
 H        -4.514252         1.376994         0.941098
 H        -3.225431        -2.294434         1.863661
 H        -2.905296        -1.547449         0.232210
 H        -1.596303        -0.590531         2.842732
