19
Iteration:  3120
 O         0.377758        -0.292027         0.617979
 C        -0.797745         0.371658         0.902403
 C        -1.830222         0.945327        -0.046570
 C        -2.550811         0.966017         1.385497
 C        -1.018872         1.565838         1.679530
 C        -4.055547         0.715822         1.764199
 O        -4.141857        -0.669941         1.986434
 C        -2.987333        -1.316855         1.377632
 C        -1.860919        -0.384830         1.769233
 H         0.655355         0.065721        -0.196553
 H        -1.455116         1.811356        -0.470069
 H        -2.231021         0.249778        -0.887516
 H        -0.938682         2.617088         1.354943
 H        -0.522221         1.682736         2.722811
 H        -4.478472         1.279602         2.584056
 H        -4.641235         0.880074         0.801164
 H        -2.937960        -2.305314         1.927912
 H        -3.099732        -1.509054         0.309324
 H        -1.575478        -0.459494         2.824431
