19
Iteration:  2427
 O         0.522709         0.042581         0.503189
 C        -0.795911         0.287446         0.894450
 C        -1.931160         0.833219         0.048911
 C        -2.465394         0.871315         1.433485
 C        -0.994687         1.386122         1.910838
 C        -3.880655         0.810064         2.013239
 O        -4.230286        -0.478651         1.554221
 C        -3.091859        -1.382272         1.301162
 C        -2.003105        -0.513615         1.756791
 H         0.568052        -0.902811         0.532597
 H        -1.754734         1.874461        -0.378404
 H        -2.290422         0.252545        -0.857557
 H        -0.840253         2.395172         1.543641
 H        -0.686766         1.355383         3.012815
 H        -3.806313         0.892813         3.125037
 H        -4.670021         1.429345         1.557592
 H        -3.193686        -2.311826         1.831742
 H        -2.962669        -1.442565         0.229206
 H        -1.754221        -0.777309         2.777426
