19
Iteration:  4977
 O         0.299448        -0.321841         0.628891
 C        -0.786301         0.440099         0.913685
 C        -1.940957         0.837067        -0.046025
 C        -2.521412         1.051256         1.296378
 C        -1.100691         1.597137         1.812658
 C        -3.836562         0.759117         1.978774
 O        -4.173828        -0.628703         1.549314
 C        -2.925748        -1.425556         1.526067
 C        -1.854330        -0.355191         1.705223
 H         0.939115         0.004352        -0.184717
 H        -1.883237         1.774065        -0.562903
 H        -2.546903         0.070956        -0.598711
 H        -0.732936         2.617825         1.510521
 H        -0.819401         1.447249         2.866403
 H        -3.826771         0.859520         3.051721
 H        -4.660450         1.391936         1.618942
 H        -2.882765        -2.132662         2.381862
 H        -2.905594        -2.013977         0.634816
 H        -1.769122        -0.376093         2.789680
