19
Iteration:  2863
 O         0.490354        -0.144359         0.505968
 C        -0.774000         0.382492         0.884431
 C        -1.903474         0.811458        -0.080808
 C        -2.517975         0.869813         1.381620
 C        -1.155257         1.568552         1.803109
 C        -3.922621         0.824275         1.819678
 O        -4.208075        -0.515844         1.819446
 C        -3.036220        -1.408175         1.417174
 C        -1.914918        -0.586529         1.809266
 H         1.390915         0.268127         0.963169
 H        -1.699743         1.826303        -0.464176
 H        -2.221190         0.112284        -0.792294
 H        -0.906584         2.538356         1.275870
 H        -0.685116         1.513319         2.822902
 H        -3.913466         1.048198         2.899480
 H        -4.652585         1.411815         1.282404
 H        -3.254430        -2.328925         1.850651
 H        -3.047601        -1.310522         0.316496
 H        -1.505075        -0.777061         2.831110
