19
Iteration:   896charge 0 multiplicity 1
 O         0.462327        -0.076023         0.376483
 C        -0.795258         0.240474         0.914671
 C        -1.941056         0.883975         0.119338
 C        -2.429269         0.880717         1.589184
 C        -1.134440         1.454981         1.944469
 C        -3.820640         0.859348         1.941597
 O        -4.288892        -0.441981         1.396214
 C        -3.025803        -1.402802         1.380572
 C        -1.859733        -0.551056         1.782455
 H         0.780856        -0.663986         1.064516
 H        -1.701917         1.915561        -0.346253
 H        -2.531270         0.396269        -0.632341
 H        -0.961731         2.452219         1.568192
 H        -0.748732         1.312688         2.955633
 H        -4.062512         0.890221         3.060126
 H        -4.453920         1.610453         1.403451
 H        -3.220100        -2.307126         1.967487
 H        -3.003049        -1.821318         0.309348
 H        -1.465666        -0.593331         2.808669
