19
Iteration:  2144
 O         0.522715        -0.001067         0.435282
 C        -0.770449         0.289369         0.911548
 C        -1.885431         0.813419         0.041048
 C        -2.461038         0.914554         1.472467
 C        -1.063635         1.411145         1.973441
 C        -3.840923         0.867016         1.896186
 O        -4.283051        -0.569797         1.692057
 C        -3.165931        -1.294422         1.214559
 C        -1.922611        -0.564476         1.725330
 H         1.060321        -0.431982         1.206396
 H        -1.881520         1.825466        -0.426907
 H        -2.439390         0.129911        -0.537892
 H        -0.785789         2.435706         1.635646
 H        -0.577612         1.155221         2.928072
 H        -3.960665         1.139924         2.977807
 H        -4.553294         1.513588         1.333818
 H        -3.174323        -2.339298         1.690709
 H        -3.223862        -1.539958         0.118363
 H        -1.646063        -0.703527         2.819194
