19
Iteration:  3850charge 0 multiplicity 1
 O         0.315235        -0.221749         0.418818
 C        -0.819737         0.357928         0.907950
 C        -1.915939         0.741181        -0.055632
 C        -2.498208         1.010796         1.480569
 C        -1.005947         1.651604         1.731950
 C        -3.966673         0.714338         1.997016
 O        -4.159732        -0.588565         1.449783
 C        -2.998784        -1.369565         1.664251
 C        -1.838995        -0.417981         1.827576
 H         1.047682         0.279472         0.659260
 H        -1.583894         1.536938        -0.778217
 H        -2.404569         0.015567        -0.628012
 H        -0.856335         2.626568         1.268390
 H        -0.816391         1.774136         2.807067
 H        -3.960124         0.779750         3.133598
 H        -4.782729         1.345833         1.647505
 H        -3.090162        -2.148874         2.418956
 H        -2.816177        -1.897994         0.757717
 H        -1.366874        -0.324722         2.763553
