19
Iteration:  2989
 O         0.336185        -0.312198         0.435949
 C        -0.816933         0.366839         0.987853
 C        -1.977061         0.799287         0.030370
 C        -2.484091         0.962067         1.505921
 C        -1.097275         1.748491         1.726410
 C        -3.894284         0.802940         1.922807
 O        -4.118726        -0.618378         1.420341
 C        -3.012170        -1.413915         1.572259
 C        -1.796296        -0.422999         1.872949
 H         0.901208         0.548241         0.156427
 H        -1.809590         1.722047        -0.499668
 H        -2.446353         0.019402        -0.710228
 H        -0.851397         2.634855         1.226434
 H        -0.751268         1.697320         2.784159
 H        -4.120375         0.914695         2.995496
 H        -4.700603         1.335183         1.352497
 H        -3.095414        -2.064193         2.506693
 H        -2.927456        -2.132519         0.784949
 H        -1.408677        -0.619330         2.875261
