19
Iteration:  3630charge 0 multiplicity 1
 O         0.407134        -0.216785         0.529156
 C        -0.837855         0.405425         0.877759
 C        -2.110590         0.781074        -0.003974
 C        -2.403445         0.998553         1.583529
 C        -0.973922         1.571649         1.778114
 C        -3.933225         0.754553         1.920624
 O        -4.200171        -0.555980         1.385338
 C        -2.972324        -1.390128         1.615708
 C        -1.825232        -0.440055         1.826268
 H         0.716161         0.159664        -0.331011
 H        -2.070627         1.761953        -0.449677
 H        -2.701238         0.014607        -0.582571
 H        -0.767968         2.590830         1.330548
 H        -0.481338         1.329831         2.734434
 H        -4.211685         0.725995         2.991911
 H        -4.578974         1.395882         1.349856
 H        -3.318248        -2.118292         2.409995
 H        -2.741267        -1.865551         0.632483
 H        -1.144539        -0.518108         2.706926
