19
Iteration:  1938
 O         0.411428        -0.190096         0.451041
 C        -0.803051         0.265492         0.953144
 C        -1.918783         0.905296         0.059633
 C        -2.446170         0.892314         1.446316
 C        -1.115190         1.503787         1.993996
 C        -3.884035         0.859427         1.858962
 O        -4.111417        -0.564210         1.720952
 C        -3.086228        -1.303544         1.198518
 C        -1.894116        -0.549820         1.713179
 H         1.191397         0.181010         1.006336
 H        -1.681680         1.961417        -0.362651
 H        -2.483129         0.230652        -0.555951
 H        -1.158928         2.475461         1.482618
 H        -0.940595         1.576877         3.094668
 H        -3.989362         1.275182         2.892129
 H        -4.573320         1.418538         1.157754
 H        -3.121965        -2.366535         1.571056
 H        -3.279774        -1.402476         0.157904
 H        -1.655244        -0.877962         2.721592
