19
Iteration:  2199charge 0 multiplicity 1
 O         0.382338        -0.254070         0.412008
 C        -0.831941         0.303812         0.985398
 C        -1.865348         1.075638         0.010055
 C        -2.467074         1.009093         1.475929
 C        -0.965625         1.454641         2.007613
 C        -3.994552         0.806278         1.791264
 O        -4.232809        -0.675381         1.857237
 C        -2.950176        -1.383504         1.151230
 C        -1.920948        -0.408468         1.694321
 H         0.876153        -0.858585         1.040077
 H        -1.661668         2.127433        -0.280150
 H        -2.419744         0.552058        -0.726487
 H        -0.465323         2.438138         1.774937
 H        -0.780877         1.388580         3.082379
 H        -4.487981         1.182999         2.717083
 H        -4.317608         1.218766         0.803567
 H        -2.791896        -2.441522         1.591318
 H        -3.208108        -1.242758         0.067120
 H        -1.857052        -0.503380         2.838108
