19
Iteration:  4458
 O         0.367152        -0.164799         0.293931
 C        -0.797977         0.318657         0.981783
 C        -1.947828         0.777863         0.001088
 C        -2.501064         1.030595         1.459645
 C        -0.963726         1.630943         1.789167
 C        -3.989517         0.772436         1.832756
 O        -4.200065        -0.647443         1.468957
 C        -2.919425        -1.407581         1.672696
 C        -1.877774        -0.334997         1.909321
 H         0.824517        -0.838364         0.917548
 H        -1.847890         1.757604        -0.439659
 H        -2.505092         0.029567        -0.657148
 H        -0.815176         2.678981         1.365758
 H        -0.649322         1.563550         2.885609
 H        -4.122013         0.846848         2.911495
 H        -4.640043         1.381846         1.118361
 H        -3.200616        -1.866418         2.647237
 H        -2.922683        -2.275992         0.964200
 H        -1.494860        -0.447337         2.908915
