19
Iteration:  3747
 O         0.432898        -0.097701         0.475962
 C        -0.711057         0.377453         0.836069
 C        -1.822652         0.842800        -0.066603
 C        -2.483598         0.911916         1.416560
 C        -1.205436         1.539357         1.943171
 C        -4.002302         0.836792         1.694874
 O        -4.138781        -0.570067         2.020712
 C        -3.025479        -1.394588         1.419274
 C        -1.831955        -0.492043         1.632948
 H         0.224614        -1.125148         0.461931
 H        -1.698156         1.825511        -0.403188
 H        -2.384136         0.013020        -0.717321
 H        -0.962722         2.406655         1.352211
 H        -0.897062         1.407754         2.985534
 H        -4.370840         1.454691         2.551523
 H        -4.512241         1.105638         0.702559
 H        -2.905234        -2.263994         2.120165
 H        -3.288120        -1.635475         0.387305
 H        -1.580794        -0.670856         2.711256
