19
Iteration:  2570
 O         0.555206        -0.055110         0.624821
 C        -0.819176         0.294333         0.851608
 C        -1.935682         0.886289        -0.034624
 C        -2.428249         0.924274         1.487230
 C        -1.063655         1.524581         1.868868
 C        -3.857691         0.816642         1.908406
 O        -4.313577        -0.568645         1.702381
 C        -3.080442        -1.416692         1.237280
 C        -1.891892        -0.508782         1.768771
 H         0.466981        -0.589602        -0.098901
 H        -1.901621         1.930840        -0.396586
 H        -2.465987         0.079527        -0.630973
 H        -0.727115         2.437173         1.458015
 H        -0.762105         1.301729         2.869449
 H        -3.857669         1.056846         2.975583
 H        -4.512817         1.515071         1.365773
 H        -3.210257        -2.326235         1.868379
 H        -3.151969        -1.657447         0.162404
 H        -1.486793        -0.724735         2.751692
