19
Iteration:  1007charge 0 multiplicity 1
 O         0.463325        -0.215435         0.436458
 C        -0.813798         0.266301         0.978394
 C        -1.746030         1.001227         0.016390
 C        -2.477920         0.919916         1.528189
 C        -1.099082         1.417083         1.976353
 C        -3.980367         0.886152         1.807976
 O        -4.244154        -0.580346         1.744073
 C        -3.067105        -1.324820         1.214706
 C        -1.923716        -0.521776         1.778257
 H         0.850071         0.448670        -0.128269
 H        -1.318282         1.959635        -0.412243
 H        -2.227017         0.305317        -0.725309
 H        -0.981115         2.421174         1.789699
 H        -0.702104         1.160083         3.034023
 H        -4.135196         1.067513         2.970783
 H        -4.713947         1.422214         1.187286
 H        -2.974420        -2.340527         1.562637
 H        -2.991757        -1.390478         0.022256
 H        -1.686976        -0.770696         2.817317
