19
Iteration:   853charge 0 multiplicity 1
 O         0.385405        -0.176454         0.363649
 C        -0.814783         0.301835         0.909123
 C        -1.918979         0.908840         0.125413
 C        -2.491216         0.958125         1.623298
 C        -0.974513         1.486610         2.007138
 C        -3.967432         0.791007         1.923848
 O        -4.245681        -0.533639         1.315800
 C        -2.981921        -1.345730         1.396025
 C        -1.861620        -0.420956         1.843556
 H         0.736218        -0.966946         0.396341
 H        -1.747415         1.832135        -0.526114
 H        -2.522049         0.387327        -0.561246
 H        -0.530451         2.359722         1.559258
 H        -0.648449         1.230573         3.047841
 H        -4.107596         0.794757         3.002073
 H        -4.577052         1.586124         1.512891
 H        -3.154052        -2.163283         2.060649
 H        -2.759083        -1.899159         0.441971
 H        -1.472172        -0.663295         2.845037
