19
Iteration:  3588charge 0 multiplicity 1
 O         0.253160        -0.291839         0.334595
 C        -0.770667         0.395813         0.941373
 C        -1.903184         0.764509         0.018219
 C        -2.451636         0.903802         1.554277
 C        -1.077096         1.748311         1.900983
 C        -3.941542         0.764439         1.902422
 O        -4.163982        -0.581463         1.311423
 C        -2.955688        -1.418707         1.577605
 C        -1.787764        -0.348295         2.022807
 H         0.092434        -0.116921        -0.545327
 H        -1.640534         1.679949        -0.560332
 H        -2.391726        -0.072962        -0.385927
 H        -0.874427         2.740942         1.450462
 H        -0.655268         1.443888         2.817813
 H        -4.001338         0.836830         2.994581
 H        -4.567539         1.507358         1.472242
 H        -3.130179        -2.154208         2.325367
 H        -2.758453        -1.839295         0.559796
 H        -1.517077        -0.487717         3.116769
