19
Iteration:  4531
 O         0.475762        -0.163532         0.493844
 C        -0.737519         0.369450         0.895070
 C        -1.931646         0.682976        -0.084014
 C        -2.506723         0.883855         1.412091
 C        -1.077669         1.655704         1.713392
 C        -3.935818         0.812584         1.935299
 O        -4.260933        -0.625458         1.791378
 C        -2.999972        -1.271272         1.365677
 C        -1.874737        -0.425887         1.812213
 H         1.080087        -0.221986         1.222137
 H        -1.576450         1.468810        -0.783448
 H        -2.373656        -0.121844        -0.769179
 H        -1.042142         2.657980         1.357995
 H        -0.797002         1.564450         2.754347
 H        -3.936455         1.148633         3.011194
 H        -4.778589         1.307459         1.380522
 H        -2.940213        -2.164172         1.973978
 H        -3.195509        -1.643118         0.349924
 H        -1.775402        -0.575716         2.944310
