19
Iteration:   573
 O         0.315028        -0.281236         0.340415
 C        -0.782362         0.264567         1.000999
 C        -1.919634         0.888210         0.063621
 C        -2.465246         1.080445         1.545120
 C        -1.055184         1.557909         1.989003
 C        -3.947209         0.768900         2.044513
 O        -4.149947        -0.509003         1.263989
 C        -2.970316        -1.401843         1.392657
 C        -1.916736        -0.428482         1.838702
 H         1.065987         0.057624         0.697401
 H        -1.626180         1.793869        -0.485313
 H        -2.420180         0.210454        -0.539407
 H        -0.721748         2.371123         1.468683
 H        -0.651233         1.379575         3.019156
 H        -3.879595         0.646927         3.085317
 H        -4.778369         1.397999         1.777822
 H        -3.259626        -2.221415         2.143089
 H        -2.884905        -1.896900         0.374275
 H        -1.477947        -0.564618         2.878220
