19
Iteration:  1036
 O         0.461141        -0.231921         0.580004
 C        -0.796429         0.339316         0.975278
 C        -1.930350         1.001827         0.071860
 C        -2.441358         0.943107         1.503988
 C        -1.089176         1.489052         2.031886
 C        -3.859677         0.806306         1.797650
 O        -4.199340        -0.549797         1.725220
 C        -3.137108        -1.322311         1.173337
 C        -1.836076        -0.574468         1.605231
 H         0.565858        -0.346278        -0.484313
 H        -1.769390         1.908159        -0.545376
 H        -2.494691         0.257357        -0.433848
 H        -0.912568         2.635606         1.827770
 H        -0.871584         1.315190         3.093450
 H        -3.997826         1.155212         2.792813
 H        -4.501025         1.508559         1.165748
 H        -3.038868        -2.356725         1.592732
 H        -3.249967        -1.596574         0.170943
 H        -1.499988        -0.882544         2.639518
