19
Iteration:   465
 O         0.513536        -0.151234         0.669660
 C        -0.799503         0.290260         0.888057
 C        -1.853883         0.930544        -0.045589
 C        -2.418277         0.859976         1.447202
 C        -1.115762         1.506805         1.880823
 C        -3.849800         0.823600         1.896463
 O        -4.229214        -0.528996         1.778125
 C        -3.148367        -1.410326         1.265776
 C        -1.942040        -0.527511         1.603952
 H         0.743193         0.305727        -0.038826
 H        -1.678830         1.877878        -0.600029
 H        -2.206630         0.186222        -0.691517
 H        -1.113433         2.544063         1.448919
 H        -0.687381         1.670431         2.932026
 H        -3.911125         1.173315         2.998440
 H        -4.548019         1.529409         1.378356
 H        -3.103968        -2.362858         1.870147
 H        -3.398517        -1.599054         0.266021
 H        -1.776479        -0.841931         2.644890
