19
Iteration:  3007
 O         0.350274        -0.214164         0.502160
 C        -0.810125         0.341233         0.817239
 C        -2.044929         0.719271         0.001941
 C        -2.419454         0.912025         1.502051
 C        -1.156514         1.603818         1.837300
 C        -3.855036         0.778358         1.853310
 O        -4.219926        -0.515688         1.470101
 C        -2.917096        -1.368737         1.628360
 C        -1.762395        -0.429808         1.792396
 H         1.196357         0.474200         0.534814
 H        -2.031658         1.602187        -0.650960
 H        -2.555577        -0.040679        -0.490130
 H        -1.131904         2.594443         1.168779
 H        -0.766416         1.704126         2.855579
 H        -3.949663         0.831190         2.963517
 H        -4.458369         1.569065         1.443413
 H        -3.135634        -2.007843         2.463515
 H        -2.889968        -2.025823         0.715534
 H        -1.445657        -0.416765         2.843155
