19
Iteration:   515charge 0 multiplicity 1
 O         0.498638        -0.049144         0.429901
 C        -0.758838         0.311637         0.920208
 C        -1.954537         0.834187         0.096166
 C        -2.431054         0.880635         1.566856
 C        -1.064812         1.510461         1.899540
 C        -3.920995         0.869632         1.893588
 O        -4.243054        -0.520701         1.522288
 C        -3.075601        -1.390537         1.312972
 C        -1.884483        -0.524475         1.841494
 H         0.456686        -1.145384         0.459008
 H        -1.784584         1.810732        -0.347306
 H        -2.412440         0.171771        -0.701295
 H        -0.743691         2.452923         1.588655
 H        -0.661883         1.350859         2.902978
 H        -4.288324         1.085580         2.923401
 H        -4.461403         1.536917         1.224214
 H        -3.226923        -2.328172         1.876011
 H        -2.925133        -1.603909         0.196762
 H        -1.621921        -0.817050         2.872915
