19
Iteration:  1904
 O         0.419142        -0.247922         0.486035
 C        -0.780538         0.309025         0.862857
 C        -1.849775         1.000181         0.055186
 C        -2.481706         0.994642         1.481104
 C        -0.950266         1.410947         2.014212
 C        -3.970081         0.796325         1.765978
 O        -4.240143        -0.671436         1.792993
 C        -3.034852        -1.290113         1.262261
 C        -1.928475        -0.461353         1.684845
 H         1.005413         0.437219         0.409734
 H        -1.684729         2.062384        -0.364371
 H        -2.506182         0.430661        -0.668786
 H        -0.748063         2.423350         1.691400
 H        -0.683066         1.380482         3.165976
 H        -4.281212         1.328257         2.697112
 H        -4.662912         1.120064         0.906419
 H        -2.904694        -2.325830         1.739785
 H        -3.253895        -1.379974         0.235735
 H        -1.862203        -0.609281         2.812949
