19
Iteration:  2428charge 0 multiplicity 1
 O         0.519270         0.047101         0.505061
 C        -0.796999         0.294175         0.893015
 C        -1.924446         0.833295         0.058459
 C        -2.467305         0.867106         1.434842
 C        -1.001663         1.384448         1.904216
 C        -3.867774         0.811472         2.006033
 O        -4.234392        -0.478903         1.560044
 C        -3.091482        -1.380885         1.297013
 C        -2.008952        -0.515280         1.758153
 H         0.581855        -0.968433         0.508171
 H        -1.722657         1.851111        -0.339419
 H        -2.282745         0.229342        -0.845079
 H        -0.839640         2.439172         1.508927
 H        -0.700356         1.365669         3.007021
 H        -3.805061         0.861792         3.115557
 H        -4.653972         1.456327         1.558856
 H        -3.174642        -2.335820         1.819413
 H        -2.987608        -1.439813         0.217273
 H        -1.735911        -0.786344         2.786382
