19
Iteration:  3566charge 0 multiplicity 1
 O         0.375650        -0.259037         0.439309
 C        -0.826898         0.276596         0.941383
 C        -2.035920         0.822511         0.102998
 C        -2.523894         1.047606         1.548833
 C        -0.966490         1.595973         1.844661
 C        -3.949485         0.745531         1.840600
 O        -4.149027        -0.609831         1.440859
 C        -2.925942        -1.345507         1.536622
 C        -1.854418        -0.348998         1.828008
 H         0.440736         0.060381        -0.549476
 H        -1.892410         1.783556        -0.439501
 H        -2.636571         0.051235        -0.342576
 H        -0.652622         2.450572         1.211576
 H        -0.700607         1.551172         2.894224
 H        -4.151029         0.895799         2.914305
 H        -4.630844         1.360575         1.281310
 H        -2.960703        -2.006172         2.373736
 H        -2.639548        -1.873589         0.597542
 H        -1.472989        -0.613475         2.859485
