19
Iteration:  2409charge 0 multiplicity 1
 O         0.525815        -0.069241         0.481854
 C        -0.805944         0.302986         0.897624
 C        -1.988596         0.913633        -0.028818
 C        -2.451991         0.997799         1.572748
 C        -1.052772         1.435904         1.954542
 C        -3.912324         0.808905         1.984806
 O        -4.298987        -0.543596         1.480712
 C        -3.073442        -1.361548         1.329094
 C        -1.810551        -0.510437         1.714578
 H         0.847844        -0.929323         0.654049
 H        -1.734734         1.758961        -0.575702
 H        -2.632193         0.154311        -0.505303
 H        -0.494820         2.477093         1.791198
 H        -0.749143         1.096073         2.941679
 H        -4.089666         0.665772         3.058171
 H        -4.564640         1.583495         1.524717
 H        -3.097744        -2.209113         2.106803
 H        -3.199473        -1.828017         0.319489
 H        -1.435443        -0.712967         2.781616
