19
Iteration:  3073charge 0 multiplicity 1
 O         0.477308        -0.239471         0.528404
 C        -0.782705         0.339957         0.899483
 C        -1.952819         0.725187        -0.075645
 C        -2.486354         0.871285         1.438995
 C        -1.247739         1.628581         1.815402
 C        -3.944855         0.847492         1.839023
 O        -4.113777        -0.509308         1.789341
 C        -3.002103        -1.371139         1.431088
 C        -1.836701        -0.472645         1.748075
 H         1.072496         0.343871         0.161433
 H        -1.963820         1.669604        -0.631956
 H        -2.372953        -0.107690        -0.664417
 H        -1.007374         2.621457         1.331147
 H        -0.888749         1.730979         2.853332
 H        -4.009001         1.158867         2.900259
 H        -4.654711         1.402481         1.219769
 H        -3.065739        -2.250216         2.060055
 H        -3.024169        -1.645617         0.337811
 H        -1.527300        -0.488842         2.801691
