19
Iteration:   105
 O         0.365074        -0.295950         0.423067
 C        -0.811587         0.321247         0.894155
 C        -1.937457         0.871580         0.069159
 C        -2.482324         0.984101         1.547721
 C        -1.069299         1.594515         1.794967
 C        -3.971843         0.846485         1.618516
 O        -4.153404        -0.649623         1.804342
 C        -2.958748        -1.314932         1.389883
 C        -1.823930        -0.439628         1.871301
 H         0.828754        -0.564343         1.312177
 H        -1.958249         1.981756        -0.303989
 H        -2.464515         0.319837        -0.764082
 H        -0.786363         2.588795         1.537323
 H        -0.654370         1.394433         2.855202
 H        -4.494998         1.339643         2.584556
 H        -4.478342         1.130396         0.648868
 H        -3.061940        -2.373443         1.734301
 H        -2.929163        -1.288455         0.242563
 H        -1.391992        -0.481026         2.892273
