19
Iteration:  3679charge 0 multiplicity 1
 O         0.455608        -0.196022         0.472935
 C        -0.802704         0.350231         0.891170
 C        -1.894229         0.761644        -0.123702
 C        -2.466910         0.834664         1.390332
 C        -1.234215         1.667028         1.875571
 C        -3.849695         0.827011         1.908005
 O        -4.204075        -0.550367         1.812620
 C        -3.069688        -1.353111         1.326848
 C        -1.806770        -0.514904         1.801189
 H         1.205903         0.325804         0.774544
 H        -1.818408         1.668760        -0.731947
 H        -2.350309        -0.105217        -0.580773
 H        -0.980715         2.609505         1.470121
 H        -1.090393         1.493846         2.950708
 H        -3.810152         1.099568         2.963205
 H        -4.633946         1.467614         1.417595
 H        -3.249809        -2.209363         1.901932
 H        -3.094889        -1.585172         0.260186
 H        -1.378737        -0.414212         2.776362
