19
Iteration:  2017charge 0 multiplicity 1
 O         0.334538        -0.111499         0.363091
 C        -0.854136         0.314087         0.931963
 C        -1.957966         0.846143         0.056612
 C        -2.412517         0.888120         1.617945
 C        -1.126654         1.479478         2.012855
 C        -3.858443         0.789901         1.900978
 O        -4.127843        -0.466652         1.397599
 C        -3.000329        -1.308359         1.395915
 C        -1.833053        -0.526481         1.786273
 H         0.708358        -1.012877         0.847118
 H        -2.031283         1.865321        -0.383700
 H        -2.294572         0.133638        -0.735220
 H        -0.744684         2.479079         1.588500
 H        -0.814690         1.256105         2.973016
 H        -4.090427         0.878972         3.013062
 H        -4.386491         1.589360         1.337530
 H        -3.216267        -2.043829         2.139148
 H        -3.058239        -1.763953         0.415598
 H        -1.527995        -0.632619         2.793830
