19
Iteration:   403charge 0 multiplicity 1
 O         0.375744        -0.216377         0.404308
 C        -0.796755         0.328688         0.952195
 C        -1.864385         0.976214         0.051255
 C        -2.437299         1.030027         1.450304
 C        -1.043963         1.587100         1.919333
 C        -3.914527         0.816542         1.741374
 O        -4.230419        -0.626745         1.789681
 C        -3.059695        -1.424102         1.325577
 C        -1.872187        -0.546526         1.806072
 H         0.837627        -0.686643         1.120502
 H        -1.599939         1.893065        -0.597780
 H        -2.178500         0.280607        -0.771048
 H        -0.733679         2.610474         1.543793
 H        -0.818266         1.497350         2.937872
 H        -4.326078         1.201839         2.707383
 H        -4.561605         1.239134         0.947283
 H        -3.170016        -2.450032         1.692749
 H        -3.091385        -1.347158         0.161767
 H        -1.487196        -0.680195         2.807329
