19
Iteration:  1596charge 0 multiplicity 1
 O         0.418690        -0.307604         0.516008
 C        -0.759419         0.348204         0.892352
 C        -1.800031         0.993490        -0.051770
 C        -2.474581         1.012259         1.482025
 C        -0.983685         1.459079         2.003507
 C        -4.045304         0.818572         1.828623
 O        -4.178062        -0.729789         1.883747
 C        -3.089288        -1.283754         1.182350
 C        -1.968956        -0.384105         1.661997
 H         1.169797         0.408430         0.393791
 H        -1.551439         2.001702        -0.402947
 H        -2.133709         0.279004        -0.762697
 H        -0.769319         2.471842         1.704039
 H        -0.628602         1.216396         3.108322
 H        -4.531081         0.996143         2.742441
 H        -4.650674         1.246016         0.997049
 H        -2.962503        -2.341190         1.618987
 H        -3.216019        -1.291841         0.119570
 H        -1.789942        -0.677521         2.708678
