19
Iteration:  4220charge 0 multiplicity 1
 O         0.420724        -0.280290         0.432666
 C        -0.829479         0.322582         0.905431
 C        -2.128811         0.703285         0.092557
 C        -2.511741         0.953509         1.519579
 C        -1.071808         1.660844         1.704466
 C        -3.923085         0.794047         1.964345
 O        -4.135738        -0.558120         1.370969
 C        -2.889111        -1.339731         1.554100
 C        -1.826442        -0.354191         1.908056
 H         1.127473         0.352686         0.645418
 H        -2.116558         1.584394        -0.530207
 H        -2.539715        -0.129094        -0.577577
 H        -0.955043         2.633464         1.242945
 H        -0.638672         1.524991         2.709706
 H        -4.075962         0.785556         3.116465
 H        -4.693832         1.349911         1.416850
 H        -3.144638        -2.112777         2.328563
 H        -2.657035        -1.836441         0.645158
 H        -1.368005        -0.340166         2.953439
