19
Iteration:   887charge 0 multiplicity 1
 O         0.447418        -0.101917         0.392280
 C        -0.811257         0.315100         0.907953
 C        -2.026563         0.937116         0.099994
 C        -2.399822         0.807706         1.592031
 C        -1.106150         1.498433         1.957536
 C        -3.857683         0.863907         1.879226
 O        -4.198935        -0.448626         1.377410
 C        -3.080320        -1.460219         1.404711
 C        -1.839572        -0.542246         1.814130
 H         0.772152        -0.830618         0.933778
 H        -1.845654         2.035740        -0.082604
 H        -2.571168         0.250958        -0.484870
 H        -0.755927         2.377773         1.540874
 H        -0.653890         1.305070         3.008163
 H        -3.960316         0.992308         2.954191
 H        -4.301127         1.662919         1.358172
 H        -3.267545        -2.283924         2.046528
 H        -3.067856        -1.619672         0.321066
 H        -1.535619        -0.827801         2.810320
