19
Iteration:  1186
 O         0.364947        -0.228613         0.350463
 C        -0.791749         0.266874         0.958405
 C        -2.042349         0.872764         0.146462
 C        -2.409126         0.867883         1.611649
 C        -1.100609         1.490142         2.065224
 C        -3.836497         0.825147         1.925730
 O        -4.119608        -0.417525         1.273475
 C        -3.013668        -1.313950         1.333080
 C        -1.870475        -0.517717         1.790299
 H         1.022797         0.066938         0.865318
 H        -2.029263         1.913650        -0.264776
 H        -2.674604         0.226075        -0.427209
 H        -1.153246         2.583824         1.749907
 H        -0.742997         1.226106         3.009778
 H        -4.020057         0.605567         3.057072
 H        -4.495616         1.598687         1.498814
 H        -3.278082        -1.983867         2.117043
 H        -2.957021        -1.702280         0.284881
 H        -1.486911        -0.804706         2.739858
