19
Iteration:  4491charge 0 multiplicity 1
 O         0.293103        -0.271697         0.325295
 C        -0.866687         0.340252         0.952095
 C        -1.971942         0.840424         0.010247
 C        -2.428408         1.037024         1.500101
 C        -1.068669         1.660556         1.812371
 C        -3.946171         0.765984         1.710728
 O        -4.133990        -0.647497         1.625836
 C        -2.855063        -1.397578         1.547005
 C        -1.831602        -0.358282         1.949755
 H         0.571820        -0.983015         1.087067
 H        -1.874584         1.840741        -0.409495
 H        -2.630245         0.223630        -0.682385
 H        -0.931796         2.700697         1.390448
 H        -0.831621         1.500552         2.909840
 H        -4.472990         1.251782         2.543803
 H        -4.448762         1.344227         0.835664
 H        -2.928633        -2.097469         2.411843
 H        -2.676930        -1.955210         0.592991
 H        -1.365667        -0.495107         2.910567
