19
Iteration:   784charge 0 multiplicity 1
 O         0.526807        -0.078434         0.536039
 C        -0.804622         0.260333         0.926035
 C        -1.991689         0.956781         0.095464
 C        -2.421310         0.908208         1.509549
 C        -1.009729         1.410536         1.870842
 C        -3.846921         0.849773         1.963744
 O        -4.244479        -0.540142         1.558691
 C        -3.091518        -1.383972         1.207571
 C        -1.943222        -0.444012         1.744219
 H         0.591935        -1.070996         0.900051
 H        -2.021239         1.909053        -0.369282
 H        -2.471683         0.262633        -0.643037
 H        -0.823024         2.427365         1.403060
 H        -0.677766         1.233020         2.832085
 H        -3.993500         0.987957         3.052388
 H        -4.581083         1.561759         1.443619
 H        -3.278839        -2.354062         1.746556
 H        -2.959839        -1.700138         0.127694
 H        -1.656370        -0.756537         2.782503
