19
Iteration:  2688charge 0 multiplicity 1
 O         0.386737        -0.197977         0.506840
 C        -0.858900         0.278751         0.909306
 C        -1.957609         0.927458         0.045736
 C        -2.532462         0.955218         1.537416
 C        -1.073407         1.555482         1.850054
 C        -3.910447         0.853600         1.920591
 O        -4.154816        -0.559300         1.415789
 C        -2.891622        -1.437861         1.457427
 C        -1.866235        -0.447047         1.854419
 H         0.399049        -0.275971        -0.410747
 H        -1.573980         1.761144        -0.597594
 H        -2.618210         0.167846        -0.521671
 H        -0.762206         2.531888         1.417854
 H        -0.729131         1.324520         2.980788
 H        -4.049885         0.855648         3.040812
 H        -4.624683         1.561865         1.488946
 H        -3.041352        -2.225379         2.204048
 H        -2.828875        -2.021136         0.454925
 H        -1.460419        -0.503443         2.881427
