19
Iteration:  2891
 O         0.515777         0.005280         0.512017
 C        -0.793633         0.320482         0.867154
 C        -1.943364         0.654690        -0.110396
 C        -2.474993         0.953602         1.415697
 C        -1.053205         1.567115         1.865736
 C        -3.872665         0.849205         1.886504
 O        -4.293906        -0.564139         1.745658
 C        -3.029891        -1.397963         1.400577
 C        -1.946326        -0.468504         1.713378
 H         1.110159        -0.536538         1.199317
 H        -1.720744         1.577228        -0.686946
 H        -2.473447        -0.109317        -0.850212
 H        -0.726625         2.485421         1.491160
 H        -0.633659         1.297212         2.866113
 H        -3.926823         0.940829         2.989029
 H        -4.611057         1.586597         1.453579
 H        -2.962293        -2.171333         2.281006
 H        -3.194947        -1.941438         0.474745
 H        -1.711943        -0.634892         2.793247
