19
Iteration:  2907
 O         0.533549        -0.004648         0.484865
 C        -0.769752         0.350739         0.866241
 C        -1.936861         0.750706        -0.036392
 C        -2.477599         0.917008         1.401808
 C        -1.067589         1.491811         1.769228
 C        -3.933344         0.831068         1.934895
 O        -4.245324        -0.558173         1.632296
 C        -3.118399        -1.410567         1.491611
 C        -1.822601        -0.467517         1.818391
 H         0.614500        -0.976291         0.970297
 H        -1.909449         1.627506        -0.706685
 H        -2.290899        -0.124037        -0.422857
 H        -0.856358         2.563049         1.347569
 H        -0.890590         1.471611         2.870511
 H        -3.961815         1.101637         3.015405
 H        -4.681044         1.301808         1.332770
 H        -3.250398        -2.278891         2.080591
 H        -3.049943        -1.512053         0.384031
 H        -1.484852        -0.434453         2.901645
