19
Iteration:  1086charge 0 multiplicity 1
 O         0.496452        -0.087502         0.510679
 C        -0.771677         0.300121         0.945201
 C        -1.886027         0.901065         0.045617
 C        -2.411921         0.898564         1.492383
 C        -1.100030         1.498391         1.987487
 C        -3.840175         0.891858         1.941117
 O        -4.267491        -0.531802         1.624260
 C        -3.140533        -1.384506         1.171786
 C        -1.919367        -0.571155         1.693736
 H         0.549158        -0.981566         0.575019
 H        -1.652502         1.915701        -0.295448
 H        -2.300524         0.293077        -0.818170
 H        -0.934147         2.520769         1.661537
 H        -0.699177         1.342137         3.002554
 H        -3.871542         0.963137         3.109052
 H        -4.692170         1.477067         1.604512
 H        -3.196560        -2.421842         1.551880
 H        -3.045792        -1.505696         0.012642
 H        -1.649115        -0.813427         2.711619
