19
Iteration:   665
 O         0.520748        -0.209890         0.523375
 C        -0.763579         0.280856         0.979037
 C        -1.740855         0.904981        -0.017344
 C        -2.501745         0.890721         1.464645
 C        -1.182558         1.528686         1.991040
 C        -3.914695         0.834068         1.954977
 O        -4.259023        -0.543724         1.727806
 C        -3.093037        -1.312485         1.177449
 C        -1.874035        -0.509762         1.675730
 H         0.384646        -0.240248        -0.381129
 H        -1.477489         1.931880        -0.359273
 H        -2.310912         0.338623        -0.844683
 H        -0.986191         2.535407         1.489763
 H        -0.936336         1.348209         2.988417
 H        -3.944055         1.108336         2.964591
 H        -4.678421         1.430600         1.406152
 H        -2.963933        -2.225377         1.756526
 H        -3.342456        -1.539964         0.139563
 H        -1.748058        -0.751946         2.727272
