19
Iteration:  3477charge 0 multiplicity 1
 O         0.475365        -0.083369         0.512916
 C        -0.805409         0.310309         0.897007
 C        -1.928985         0.769252        -0.065766
 C        -2.466684         0.926387         1.383944
 C        -1.095160         1.582503         1.746344
 C        -3.899797         0.815201         1.851769
 O        -4.226621        -0.584098         1.883856
 C        -3.079908        -1.354697         1.388836
 C        -1.847883        -0.567786         1.725574
 H         1.085373         0.134184         1.266834
 H        -1.692647         1.758407        -0.452691
 H        -2.488904         0.059667        -0.786973
 H        -0.833643         2.522587         1.246383
 H        -0.817076         1.439405         2.816257
 H        -3.951388         1.303670         2.858546
 H        -4.499881         1.413341         1.153182
 H        -3.332271        -2.262483         1.934320
 H        -3.210783        -1.485901         0.301785
 H        -1.420554        -0.695446         2.787466
