19
Iteration:  2384
 O         0.351918        -0.184363         0.404329
 C        -0.799708         0.393395         0.955093
 C        -1.974784         0.996371         0.065311
 C        -2.423848         0.834034         1.588844
 C        -1.063784         1.544239         1.956974
 C        -3.884098         0.811296         1.941613
 O        -4.143269        -0.514197         1.390350
 C        -3.058533        -1.416090         1.352650
 C        -1.810385        -0.544668         1.774918
 H         0.657355        -1.084175         0.836104
 H        -2.045547         2.080856        -0.235780
 H        -2.504517         0.317556        -0.671965
 H        -0.881084         2.585329         1.551944
 H        -0.497330         1.498886         2.991526
 H        -4.077255         0.818862         3.051260
 H        -4.524994         1.484971         1.341860
 H        -3.246364        -2.164130         2.157067
 H        -3.078668        -1.892735         0.352587
 H        -1.622054        -0.601808         2.874792
