19
Iteration:  2596
 O         0.562503        -0.141218         0.570185
 C        -0.784875         0.333557         0.897340
 C        -1.940384         0.810377        -0.047034
 C        -2.471866         0.875800         1.513023
 C        -1.117577         1.478458         1.872463
 C        -3.915700         0.815340         1.998116
 O        -4.266989        -0.494351         1.585756
 C        -3.071126        -1.352703         1.326048
 C        -1.880503        -0.490199         1.682565
 H         0.775655         0.553597         0.009458
 H        -1.804832         1.747416        -0.526073
 H        -2.290866         0.009987        -0.588057
 H        -0.742663         2.450516         1.425586
 H        -0.880589         1.320693         2.918433
 H        -3.894101         0.913859         3.102606
 H        -4.609162         1.579146         1.599729
 H        -3.109585        -2.108070         2.142826
 H        -3.177408        -1.923903         0.419255
 H        -1.477056        -0.736568         2.692789
