19
Iteration:  3828charge 0 multiplicity 1
 O         0.438123        -0.246933         0.564898
 C        -0.792795         0.265732         0.816526
 C        -2.083137         0.732115        -0.002610
 C        -2.498405         0.881378         1.426547
 C        -1.214023         1.628875         1.723112
 C        -3.829108         0.840631         1.978546
 O        -4.168086        -0.525435         1.538875
 C        -2.917573        -1.369542         1.491393
 C        -1.829555        -0.417505         1.850270
 H         0.886846         0.675452         0.315340
 H        -1.961458         1.646744        -0.674125
 H        -2.547408         0.069125        -0.652437
 H        -1.135246         2.685749         1.381836
 H        -0.720447         1.615653         2.713296
 H        -3.707588         0.954824         3.103452
 H        -4.487000         1.637977         1.626306
 H        -2.999452        -2.109953         2.288505
 H        -2.883783        -1.897466         0.574436
 H        -1.458414        -0.384963         2.856358
