19
Iteration:  2507
 O         0.334568        -0.269169         0.447701
 C        -0.810045         0.325506         0.941691
 C        -1.802713         1.033214         0.053077
 C        -2.499546         0.981814         1.493944
 C        -1.094706         1.492639         1.939653
 C        -3.963530         0.800089         1.766867
 O        -4.160674        -0.609000         1.774447
 C        -3.041056        -1.367820         1.251142
 C        -1.829383        -0.498454         1.733448
 H         1.043878         0.266429         0.621171
 H        -1.610328         2.025815        -0.278826
 H        -2.209691         0.323937        -0.650350
 H        -0.728844         2.575439         1.600025
 H        -0.776957         1.284045         2.951149
 H        -4.253449         1.154473         2.771511
 H        -4.736224         1.232317         1.081438
 H        -3.147240        -2.351580         1.780537
 H        -3.029218        -1.685241         0.225627
 H        -1.512808        -0.699504         2.790473
