19
Iteration:   919charge 0 multiplicity 1
 O         0.411730        -0.120687         0.381145
 C        -0.753731         0.336162         1.020495
 C        -1.846672         0.796821         0.015893
 C        -2.433136         0.946450         1.509117
 C        -0.994332         1.498611         1.983609
 C        -3.943978         0.763918         1.997405
 O        -4.267618        -0.506672         1.475070
 C        -3.141736        -1.336426         1.299542
 C        -1.915507        -0.454760         1.729675
 H         1.065089        -0.048034         1.235202
 H        -1.685773         1.717706        -0.673446
 H        -2.229493         0.033098        -0.646936
 H        -0.440612         2.307409         1.668477
 H        -0.673122         1.193317         3.024353
 H        -3.866179         0.677328         3.150242
 H        -4.753969         1.431586         1.729513
 H        -3.165284        -2.315787         1.770508
 H        -3.318904        -1.636628         0.216030
 H        -1.561518        -0.638688         2.747985
