19
Iteration:   637charge 0 multiplicity 1
 O         0.479151        -0.113747         0.566757
 C        -0.802275         0.319539         0.924485
 C        -1.923270         0.866882         0.005897
 C        -2.440599         0.897262         1.481954
 C        -1.002316         1.430938         1.956004
 C        -3.842843         0.843624         1.885903
 O        -4.287798        -0.553350         1.580860
 C        -3.145426        -1.326268         1.296820
 C        -1.890610        -0.527388         1.748670
 H         0.716247         0.318603        -0.161784
 H        -1.823975         1.889236        -0.404073
 H        -2.507400         0.198643        -0.530129
 H        -0.619534         2.354454         1.544998
 H        -0.616943         1.197579         3.025822
 H        -3.858316         1.025502         3.041717
 H        -4.564499         1.428217         1.339504
 H        -3.075017        -2.306280         1.783484
 H        -3.189307        -1.486057         0.188196
 H        -1.623476        -0.717423         2.819218
