19
Iteration:  2020charge 0 multiplicity 1
 O         0.330466        -0.124858         0.348572
 C        -0.843608         0.297940         0.942609
 C        -1.955906         0.837529         0.068641
 C        -2.408306         0.905834         1.629762
 C        -1.112820         1.485864         2.000808
 C        -3.861936         0.766519         1.907920
 O        -4.134399        -0.471655         1.382575
 C        -2.989995        -1.276407         1.377438
 C        -1.838839        -0.495269         1.796929
 H         0.589787        -0.878933         0.837279
 H        -2.045337         1.841411        -0.280374
 H        -2.359145         0.059890        -0.678800
 H        -0.776887         2.428139         1.647623
 H        -0.737944         1.211461         3.020584
 H        -4.231204         0.911034         2.979918
 H        -4.369090         1.493278         1.271378
 H        -3.078434        -2.031407         2.185015
 H        -3.144684        -1.832213         0.365382
 H        -1.512228        -0.628151         2.852846
