19
Iteration:  4113
 O         0.546525        -0.030016         0.684135
 C        -0.785356         0.314944         0.789057
 C        -1.996591         0.614022        -0.122648
 C        -2.446436         0.854461         1.431649
 C        -1.179642         1.622738         1.625413
 C        -3.893495         0.856823         1.957495
 O        -4.273574        -0.575606         1.774804
 C        -3.051004        -1.364058         1.447391
 C        -1.775373        -0.431727         1.806979
 H         0.847229        -0.325661        -0.285626
 H        -1.990782         1.560326        -0.613172
 H        -2.496620        -0.171518        -0.801084
 H        -0.926044         2.582497         1.234250
 H        -0.907221         1.545718         2.679283
 H        -3.894218         0.980624         3.073952
 H        -4.573367         1.516141         1.461537
 H        -3.111402        -2.227648         2.088188
 H        -3.073453        -1.646491         0.348562
 H        -1.371648        -0.441819         2.861536
