19
Iteration:  4804charge 0 multiplicity 1
 O         0.330136        -0.335449         0.461499
 C        -0.824591         0.372111         0.964091
 C        -1.993699         0.811953         0.061069
 C        -2.427482         1.011932         1.547719
 C        -1.131826         1.755015         1.767935
 C        -3.875211         0.784860         1.949795
 O        -4.124628        -0.586957         1.521422
 C        -3.003192        -1.417258         1.341694
 C        -1.776487        -0.422200         1.801873
 H         0.962947        -0.661794         1.155117
 H        -1.775710         1.722898        -0.514971
 H        -2.527193         0.049343        -0.538039
 H        -1.156711         2.628213         1.114241
 H        -0.976826         2.042204         2.813074
 H        -4.100756         0.887666         3.046367
 H        -4.469795         1.389618         1.282522
 H        -3.008474        -2.216547         2.086254
 H        -3.014504        -1.982842         0.377085
 H        -1.496835        -0.572692         2.837535
