19
Iteration:  2561charge 0 multiplicity 1
 O         0.485109        -0.042156         0.576742
 C        -0.846338         0.321143         0.942928
 C        -1.921500         0.885860        -0.013646
 C        -2.454219         0.856319         1.543333
 C        -1.068864         1.465593         1.838178
 C        -3.871944         0.872493         1.878755
 O        -4.244118        -0.567798         1.725908
 C        -3.010857        -1.376323         1.231676
 C        -1.926415        -0.519555         1.711826
 H         0.412794        -0.878141         0.234208
 H        -1.623147         1.768628        -0.489509
 H        -2.330033         0.360433        -0.856591
 H        -0.622288         2.376725         1.373623
 H        -0.844569         1.417190         2.846296
 H        -4.025171         1.028453         2.942804
 H        -4.578763         1.485855         1.292591
 H        -3.003216        -2.294430         1.897584
 H        -3.084030        -1.538353         0.186278
 H        -1.622581        -0.742153         2.744993
