19
Iteration:  2994charge 0 multiplicity 1
 O         0.331116        -0.276794         0.448830
 C        -0.847362         0.338762         0.956561
 C        -1.983957         0.777102         0.035896
 C        -2.471146         0.908573         1.488294
 C        -1.078394         1.730547         1.759167
 C        -3.873851         0.770016         1.900154
 O        -4.125355        -0.582938         1.432900
 C        -2.994609        -1.374472         1.575874
 C        -1.817257        -0.428664         1.847574
 H         0.944607         0.379980         0.278772
 H        -1.938538         1.803105        -0.482182
 H        -2.349232         0.012141        -0.559586
 H        -1.018493         2.770825         1.213002
 H        -0.808742         1.831384         2.807115
 H        -4.004526         0.950742         2.995572
 H        -4.616073         1.299073         1.338882
 H        -2.981494        -1.908118         2.527075
 H        -3.016029        -2.169924         0.747288
 H        -1.373174        -0.598024         2.858221
