19
Iteration:  1914
 O         0.421067        -0.254493         0.448632
 C        -0.798195         0.314412         0.960125
 C        -1.876550         0.994155        -0.002640
 C        -2.442991         0.913705         1.505382
 C        -0.982624         1.478977         1.994668
 C        -3.993523         0.794166         1.793824
 O        -4.311380        -0.640662         1.822526
 C        -3.014158        -1.320720         1.206012
 C        -1.890997        -0.399344         1.708627
 H         1.063130         0.338571         0.593125
 H        -1.494704         1.961032        -0.414388
 H        -2.243335         0.238049        -0.756143
 H        -0.799861         2.479728         1.697751
 H        -0.765321         1.197438         3.132278
 H        -4.362014         1.266816         2.722165
 H        -4.389126         1.368901         0.916536
 H        -2.931123        -2.379656         1.599573
 H        -3.146834        -1.383565         0.171571
 H        -1.372278        -0.791188         2.617081
