19
Iteration:  2506
 O         0.334830        -0.267793         0.452673
 C        -0.814325         0.324879         0.940344
 C        -1.807275         1.039694         0.046331
 C        -2.500339         0.986462         1.498991
 C        -1.090574         1.496687         1.935463
 C        -3.965900         0.792470         1.758534
 O        -4.155923        -0.604417         1.773937
 C        -3.044387        -1.371327         1.257400
 C        -1.829378        -0.505417         1.737557
 H         1.011960         0.309670         0.600487
 H        -1.561151         2.026611        -0.255261
 H        -2.226774         0.305480        -0.655948
 H        -0.693920         2.524612         1.598951
 H        -0.802852         1.275986         2.948892
 H        -4.214323         1.130347         2.776518
 H        -4.736901         1.250964         1.093049
 H        -3.151323        -2.351505         1.772450
 H        -3.016864        -1.666285         0.225596
 H        -1.514857        -0.732145         2.779199
