19
Iteration:  4890charge 0 multiplicity 1
 O         0.523681        -0.061307         0.483103
 C        -0.799009         0.335080         0.825777
 C        -1.851534         0.828856        -0.031058
 C        -2.515409         0.824694         1.402590
 C        -1.126806         1.447229         1.891955
 C        -3.915752         0.814881         1.766049
 O        -4.307433        -0.505927         1.683143
 C        -3.046096        -1.347731         1.619062
 C        -1.810835        -0.542829         1.789466
 H         0.670762         0.234280        -0.435458
 H        -1.819074         1.814268        -0.353081
 H        -2.138343         0.233615        -0.894400
 H        -0.950032         2.469808         1.493136
 H        -0.730629         1.344164         2.917966
 H        -4.091518         1.056051         2.864037
 H        -4.593343         1.303727         1.085490
 H        -3.130132        -1.939147         2.531742
 H        -3.156127        -2.003635         0.808055
 H        -1.403254        -0.475009         2.761454
