19
Iteration:  4664charge 0 multiplicity 1
 O         0.428814        -0.402545         0.435494
 C        -0.780191         0.338232         0.908327
 C        -2.007223         0.892700        -0.022670
 C        -2.484538         0.999968         1.468094
 C        -1.218967         1.734262         1.856574
 C        -3.915578         0.806729         1.857232
 O        -4.185249        -0.635490         1.675521
 C        -2.876105        -1.343490         1.475715
 C        -1.770616        -0.381006         1.676528
 H         0.669707        -1.026998         1.263822
 H        -1.918287         1.909596        -0.537648
 H        -2.656320         0.185155        -0.642865
 H        -1.033306         2.768041         1.568547
 H        -0.950838         1.536539         2.892310
 H        -4.122212         1.077995         2.894892
 H        -4.448141         1.365561         1.095045
 H        -2.885057        -2.081507         2.266510
 H        -2.937450        -2.023795         0.565010
 H        -1.639031        -0.388196         2.814834
