19
Iteration:  1508
 O         0.441855        -0.118985         0.470699
 C        -0.776887         0.310477         0.913934
 C        -1.877525         0.884766         0.074617
 C        -2.432332         0.902933         1.566670
 C        -1.095836         1.443689         1.920804
 C        -3.875003         0.798424         1.978198
 O        -4.287040        -0.457019         1.386576
 C        -3.069623        -1.441003         1.349620
 C        -1.877556        -0.514141         1.831487
 H         0.499507        -0.003566        -0.439258
 H        -1.642999         1.918238        -0.231511
 H        -2.346289         0.338980        -0.721541
 H        -1.005962         2.528127         1.658909
 H        -0.689378         1.255612         3.031338
 H        -3.859505         0.774293         3.035027
 H        -4.312951         1.755884         1.651034
 H        -3.279225        -2.243085         2.137241
 H        -3.031706        -1.753553         0.337150
 H        -1.421071        -0.691074         2.798266
