19
Iteration:  1952charge 0 multiplicity 1
 O         0.451797        -0.126893         0.478152
 C        -0.804524         0.270811         0.940360
 C        -1.950366         0.853868        -0.008879
 C        -2.440014         0.924609         1.525944
 C        -1.144561         1.490292         1.916788
 C        -3.806835         0.851203         1.915404
 O        -4.274718        -0.536763         1.737773
 C        -3.023876        -1.362589         1.166006
 C        -1.898073        -0.523355         1.686228
 H         1.128838         0.007784         1.226579
 H        -1.681394         1.861503        -0.411504
 H        -2.377608         0.159252        -0.733105
 H        -0.621222         2.477079         1.659942
 H        -0.905441         1.233285         2.887265
 H        -3.977244         1.036052         3.004906
 H        -4.416746         1.581049         1.346962
 H        -3.126205        -2.291466         1.678543
 H        -2.948341        -1.551662         0.027096
 H        -1.761091        -0.667991         2.757320
