19
Iteration:   837charge 0 multiplicity 1
 O         0.419456        -0.167529         0.330934
 C        -0.830961         0.267264         1.019816
 C        -1.964750         0.954487         0.085416
 C        -2.398307         0.984955         1.505940
 C        -1.034132         1.482188         1.947346
 C        -3.903077         0.741219         1.962777
 O        -4.161823        -0.495132         1.337788
 C        -3.033984        -1.361391         1.383603
 C        -1.897442        -0.461865         1.885195
 H         0.240474        -1.122010         0.659565
 H        -1.633783         1.927479        -0.193384
 H        -2.387052         0.290550        -0.758506
 H        -0.887202         2.563318         1.675862
 H        -0.763895         1.327302         2.995240
 H        -3.976650         0.690934         3.128579
 H        -4.751317         1.410806         1.556461
 H        -3.167949        -2.323374         2.019311
 H        -2.904022        -1.551504         0.314581
 H        -1.800423        -0.600074         3.007736
