19
Iteration:  3181charge 0 multiplicity 1
 O         0.509667        -0.104009         0.505910
 C        -0.801214         0.265329         0.908746
 C        -1.909650         0.780446        -0.078916
 C        -2.474380         0.924033         1.380290
 C        -1.059748         1.561912         1.745938
 C        -3.947875         0.833971         1.820491
 O        -4.276348        -0.570247         1.839838
 C        -3.051652        -1.437450         1.477998
 C        -1.879683        -0.456201         1.835484
 H         0.954980         0.596670         0.152913
 H        -1.644280         1.727625        -0.708864
 H        -2.300633        -0.063863        -0.704359
 H        -0.857887         2.428444         1.108073
 H        -0.717187         1.618556         2.763602
 H        -4.033466         1.303726         2.834199
 H        -4.648127         1.285682         1.126289
 H        -3.172332        -2.293032         2.125862
 H        -2.953922        -1.698098         0.392367
 H        -1.539610        -0.501741         2.910686
