19
Iteration:   736
 O         0.596615        -0.130754         0.431472
 C        -0.713325         0.341487         0.958323
 C        -1.928316         0.917423         0.029097
 C        -2.443317         0.845824         1.466249
 C        -1.097197         1.497463         2.061032
 C        -3.886781         0.899591         1.828733
 O        -4.264668        -0.583890         1.758184
 C        -3.099761        -1.330575         1.218234
 C        -1.961260        -0.516676         1.675454
 H         0.484990        -0.987401         0.464646
 H        -1.695359         1.951803        -0.371284
 H        -2.487767         0.415266        -0.743767
 H        -0.798394         2.411721         1.663913
 H        -0.869960         0.984971         3.103797
 H        -4.206551         1.230099         2.918784
 H        -4.519134         1.450189         1.143789
 H        -3.277671        -2.352312         1.633843
 H        -3.091540        -1.468095         0.150500
 H        -1.948064        -0.765848         2.761512
