19
Iteration:  3757charge 0 multiplicity 1
 O         0.472456        -0.139257         0.432263
 C        -0.797076         0.382314         0.924901
 C        -1.841954         0.829033        -0.044529
 C        -2.482648         0.914451         1.365402
 C        -1.203015         1.589812         1.937148
 C        -3.949697         0.825196         1.688466
 O        -4.113361        -0.564871         1.979334
 C        -3.037809        -1.395781         1.440491
 C        -1.843453        -0.502177         1.686768
 H         0.337063        -0.996154         0.039753
 H        -1.654063         1.700923        -0.616363
 H        -2.268485         0.106833        -0.862917
 H        -1.076338         2.651939         1.780803
 H        -0.980718         1.478773         3.012750
 H        -4.256757         1.374149         2.594186
 H        -4.688707         1.134076         0.897772
 H        -3.041844        -2.345150         2.015164
 H        -3.332312        -1.718531         0.413832
 H        -1.572031        -0.544077         2.769494
