19
Iteration:  3575
 O         0.304112        -0.280041         0.377389
 C        -0.788354         0.390817         0.951801
 C        -1.974817         0.781151         0.113654
 C        -2.437043         1.051137         1.547650
 C        -0.973634         1.596247         1.854393
 C        -3.919659         0.747673         1.861263
 O        -4.208538        -0.625510         1.384341
 C        -2.911210        -1.345183         1.533139
 C        -1.871461        -0.364424         1.925110
 H         0.372149        -0.099558        -0.653873
 H        -2.007865         1.629108        -0.507976
 H        -2.317622        -0.050696        -0.594101
 H        -0.854834         2.642034         1.481875
 H        -0.668606         1.720364         2.923473
 H        -4.171291         0.710250         2.924021
 H        -4.696022         1.310678         1.347257
 H        -3.064166        -2.105170         2.366369
 H        -2.681391        -1.987396         0.657073
 H        -1.591801        -0.286398         3.021742
