19
Iteration:   414
 O         0.317052        -0.220601         0.454293
 C        -0.827712         0.292988         0.968472
 C        -1.842811         0.873573         0.035862
 C        -2.453775         1.075164         1.474505
 C        -1.012519         1.544975         1.903009
 C        -3.911264         0.818961         1.774525
 O        -4.175557        -0.665385         1.816301
 C        -3.051310        -1.352142         1.234136
 C        -1.885185        -0.436450         1.715574
 H         1.050440        -0.190395         1.264280
 H        -1.466489         1.908785        -0.277380
 H        -2.492963         0.204912        -0.591488
 H        -0.649484         2.508424         1.423153
 H        -0.859219         1.440567         2.928836
 H        -4.217027         1.267109         2.751335
 H        -4.502209         1.201949         0.917185
 H        -2.927043        -2.341989         1.702181
 H        -3.268976        -1.634708         0.127683
 H        -1.785736        -0.711203         2.756663
