19
Iteration:  2330charge 0 multiplicity 1
 O         0.340109        -0.232765         0.354163
 C        -0.849958         0.336607         0.887538
 C        -1.955637         0.879118         0.157497
 C        -2.459518         0.961591         1.657174
 C        -1.005540         1.550454         1.973740
 C        -3.912198         0.782969         1.955854
 O        -4.212800        -0.477168         1.297999
 C        -2.996050        -1.416697         1.364073
 C        -1.821133        -0.499470         1.824443
 H         1.282633        -0.032486         0.772820
 H        -1.910040         1.868846        -0.310956
 H        -2.481502         0.198869        -0.562273
 H        -0.703077         2.618556         1.635894
 H        -0.652212         1.237571         3.083754
 H        -4.138707         0.874186         3.047249
 H        -4.652740         1.437376         1.406786
 H        -3.318397        -2.267288         2.061276
 H        -2.761403        -1.739637         0.324006
 H        -1.373871        -0.685801         2.849616
