19
Iteration:    23
 O         0.544989         0.060846         0.576944
 C        -0.801227         0.317506         0.867676
 C        -2.069484         0.629050        -0.051850
 C        -2.433124         0.891374         1.431003
 C        -1.093866         1.516941         1.793880
 C        -3.758466         0.883694         1.945926
 O        -4.244641        -0.471355         1.658836
 C        -3.138952        -1.428424         1.352429
 C        -1.877871        -0.545861         1.741449
 H         0.948541        -0.370318         1.397792
 H        -1.969455         1.466108        -0.726773
 H        -2.468374        -0.266031        -0.575935
 H        -0.890644         2.499508         1.318449
 H        -0.798526         1.477643         2.827439
 H        -3.752747         1.124913         2.995298
 H        -4.436080         1.580329         1.447688
 H        -3.241022        -2.256820         2.060319
 H        -3.232856        -1.828193         0.342662
 H        -1.553891        -0.734037         2.772834
