19
Iteration:  2936charge 0 multiplicity 1
 O         0.427429        -0.142427         0.511787
 C        -0.876817         0.301161         0.893232
 C        -1.970729         0.779827         0.044116
 C        -2.445995         0.982377         1.528334
 C        -1.097178         1.677229         1.797672
 C        -3.895970         0.841626         1.864765
 O        -4.197786        -0.530107         1.516579
 C        -2.892859        -1.487750         1.486990
 C        -1.839559        -0.467273         1.846424
 H         0.169182        -0.961820        -0.117346
 H        -1.900567         1.606222        -0.690170
 H        -2.585165        -0.174009        -0.345380
 H        -1.067171         2.568443         1.266807
 H        -0.724678         1.756705         2.870318
 H        -4.085108         1.123529         2.937339
 H        -4.614886         1.355575         1.159448
 H        -3.014418        -2.331363         2.248937
 H        -2.881463        -1.783762         0.421117
 H        -1.402171        -0.631741         2.860792
