19
Iteration:  4180
 O         0.302202        -0.250801         0.294291
 C        -0.805629         0.337041         0.894629
 C        -1.990597         0.767838         0.115002
 C        -2.470389         1.032774         1.518677
 C        -1.089319         1.697526         1.787328
 C        -3.969706         0.805639         1.844204
 O        -4.096397        -0.642727         1.422540
 C        -2.927580        -1.455461         1.637954
 C        -1.805687        -0.326111         1.937776
 H         1.029822        -0.450492         0.966671
 H        -1.890831         1.714925        -0.424510
 H        -2.417417        -0.034285        -0.530348
 H        -0.928839         2.632861         1.244733
 H        -0.802438         1.707512         2.835372
 H        -4.215273         0.964205         2.889969
 H        -4.596689         1.327240         1.156638
 H        -2.956764        -2.120659         2.480433
 H        -2.820862        -2.015020         0.680089
 H        -1.654490        -0.455713         2.992454
