19
Iteration:  1234charge 0 multiplicity 1
 O         0.522948        -0.110327         0.412417
 C        -0.741228         0.311932         0.899218
 C        -1.942810         0.916062         0.102003
 C        -2.477953         0.977027         1.548643
 C        -1.017774         1.457045         2.000855
 C        -3.881971         0.771012         1.956153
 O        -4.297859        -0.558087         1.465054
 C        -3.127430        -1.325144         1.282564
 C        -1.887219        -0.499843         1.718166
 H         0.884847        -0.809535         1.144399
 H        -1.709219         1.870995        -0.342011
 H        -2.329766         0.260417        -0.727198
 H        -0.580078         2.368223         1.742430
 H        -0.882132         1.146499         3.033063
 H        -3.933558         0.808604         3.085935
 H        -4.618182         1.462948         1.474048
 H        -3.322546        -2.216969         1.996159
 H        -3.230334        -1.537491         0.233407
 H        -1.630642        -0.663635         2.817861
