19
Iteration:   704charge 0 multiplicity 1
 O         0.401777        -0.099567         0.676285
 C        -0.854745         0.330039         0.892138
 C        -1.879616         0.970596         0.002770
 C        -2.434816         0.873857         1.529535
 C        -0.962595         1.414393         1.897588
 C        -3.970750         0.846515         1.823292
 O        -4.192063        -0.611895         1.792846
 C        -3.056328        -1.277119         1.190433
 C        -1.918709        -0.517265         1.599546
 H         0.207745        -1.025036         0.112305
 H        -1.572667         1.983373        -0.196340
 H        -2.403044         0.403023        -0.717357
 H        -0.529137         2.331361         1.564987
 H        -0.376729         1.115270         2.872525
 H        -4.313705         1.232914         2.876233
 H        -4.426936         1.358864         0.972010
 H        -3.095932        -2.284705         1.690125
 H        -3.064608        -1.350450         0.091947
 H        -1.518557        -0.783591         2.619603
