19
Iteration:  2762
 O         0.490003        -0.035017         0.486510
 C        -0.793963         0.341404         0.928891
 C        -1.915816         0.763544        -0.015363
 C        -2.486529         0.951507         1.495827
 C        -1.090203         1.456290         1.818392
 C        -3.866725         0.866504         1.863044
 O        -4.266404        -0.595711         1.712342
 C        -3.016837        -1.354945         1.321945
 C        -1.890728        -0.466473         1.768008
 H         0.730007        -0.909304         0.955122
 H        -1.927191         1.679250        -0.516650
 H        -2.353524        -0.018819        -0.683872
 H        -0.888973         2.400742         1.371305
 H        -0.641963         1.591189         2.853852
 H        -3.968328         1.143268         2.911301
 H        -4.634593         1.405666         1.316103
 H        -3.043545        -2.293560         1.875114
 H        -3.091701        -1.710074         0.292306
 H        -1.693848        -0.597611         2.876981
