19
Iteration:  1702
 O         0.392576        -0.230582         0.548072
 C        -0.817320         0.332962         0.939046
 C        -1.953932         0.920309         0.057586
 C        -2.442043         0.883782         1.539213
 C        -1.102713         1.560201         1.928330
 C        -3.791938         0.825907         1.994888
 O        -4.211755        -0.524413         1.401281
 C        -3.085975        -1.370668         1.358285
 C        -1.819013        -0.550694         1.720748
 H         0.623232         0.394048        -0.308890
 H        -1.791681         1.889211        -0.452809
 H        -2.445473         0.264749        -0.620398
 H        -0.764409         2.546403         1.449433
 H        -0.840188         1.501700         2.932220
 H        -3.817794         0.781892         3.119248
 H        -4.529339         1.509659         1.623889
 H        -3.228108        -2.158738         2.090933
 H        -3.222582        -1.882940         0.390069
 H        -1.388686        -0.706647         2.730018
