19
Iteration:  2699charge 0 multiplicity 1
 O         0.428634        -0.204877         0.522624
 C        -0.854160         0.302522         0.911984
 C        -1.963199         0.853138        -0.063067
 C        -2.413529         1.047563         1.506653
 C        -1.058547         1.533394         1.903759
 C        -3.933983         0.777273         1.956763
 O        -4.266102        -0.566890         1.434317
 C        -2.971351        -1.408502         1.468944
 C        -1.817819        -0.450191         1.853342
 H         0.679160         0.238817        -0.386712
 H        -2.020185         1.874880        -0.492490
 H        -2.382675         0.055119        -0.772083
 H        -0.744701         2.498669         1.434543
 H        -0.649682         1.580024         3.019549
 H        -3.997851         0.838832         3.084826
 H        -4.697300         1.398693         1.475636
 H        -3.142639        -2.179053         2.220618
 H        -2.797620        -1.862825         0.413509
 H        -1.365328        -0.673864         2.832514
