19
Iteration:   844charge 0 multiplicity 1
 O         0.410116        -0.172895         0.332807
 C        -0.791443         0.236573         0.964228
 C        -1.959950         0.958050         0.049215
 C        -2.476265         0.966793         1.542219
 C        -0.977930         1.494716         1.983499
 C        -3.945698         0.776115         1.957466
 O        -4.196735        -0.517253         1.327789
 C        -2.994708        -1.335341         1.386038
 C        -1.912566        -0.465024         1.923079
 H         0.532001        -1.044975         0.477215
 H        -1.711158         2.007713        -0.220558
 H        -2.412076         0.286900        -0.660228
 H        -0.680682         2.485556         1.718440
 H        -0.765314         1.346250         3.130631
 H        -4.048786         0.662950         3.004759
 H        -4.712146         1.356183         1.562559
 H        -3.268199        -2.141282         2.031661
 H        -2.750760        -1.670559         0.376313
 H        -1.561048        -0.537173         2.927149
