19
Iteration:  2759
 O         0.477235        -0.026990         0.497715
 C        -0.803363         0.303330         0.914133
 C        -1.925952         0.770903        -0.015894
 C        -2.469076         0.931799         1.481939
 C        -1.104434         1.458056         1.821845
 C        -3.855796         0.842001         1.863692
 O        -4.261729        -0.585018         1.702957
 C        -3.033334        -1.323494         1.302903
 C        -1.862619        -0.466218         1.810240
 H         0.736389        -0.708495         1.012902
 H        -1.906079         1.739411        -0.600182
 H        -2.373845        -0.004280        -0.618524
 H        -0.957465         2.442188         1.312416
 H        -0.632742         1.430166         2.754632
 H        -3.931781         1.116327         2.920616
 H        -4.622298         1.433236         1.331109
 H        -3.110148        -2.255681         1.949445
 H        -3.060792        -1.701977         0.315652
 H        -1.600630        -0.603337         2.867089
