19
Iteration:  4592
 O         0.552187        -0.046759         0.459972
 C        -0.719311         0.398404         0.822080
 C        -1.964505         0.718535        -0.084494
 C        -2.419072         0.895631         1.421209
 C        -1.133481         1.517797         1.809636
 C        -3.938614         0.839041         1.804156
 O        -4.285839        -0.534225         1.863531
 C        -3.095167        -1.390797         1.458616
 C        -1.877301        -0.560815         1.761953
 H         1.184776         0.124231         1.296857
 H        -1.800349         1.636184        -0.664624
 H        -2.270820        -0.112992        -0.632580
 H        -0.883663         2.592913         1.557169
 H        -0.942957         1.380169         2.910998
 H        -4.120898         1.472095         2.717272
 H        -4.458220         1.310361         0.921879
 H        -3.057686        -2.251857         2.209794
 H        -3.349335        -1.751997         0.468551
 H        -1.460548        -0.829307         2.722912
