19
Iteration:   635charge 0 multiplicity 1
 O         0.490225        -0.117583         0.569109
 C        -0.801313         0.296691         0.935400
 C        -1.950860         0.865284         0.014685
 C        -2.429032         0.900364         1.483370
 C        -1.008512         1.415200         1.954701
 C        -3.855185         0.843182         1.886314
 O        -4.280904        -0.550274         1.574071
 C        -3.136580        -1.315828         1.291107
 C        -1.880862        -0.513170         1.743651
 H         0.759542         0.395247        -0.217729
 H        -1.820586         1.904326        -0.385724
 H        -2.584407         0.171755        -0.543038
 H        -0.600202         2.451175         1.557103
 H        -0.591189         1.224962         3.000063
 H        -3.884877         1.019490         3.032297
 H        -4.580305         1.430384         1.327596
 H        -3.086244        -2.230793         1.841703
 H        -3.221829        -1.539916         0.216312
 H        -1.658546        -0.758759         2.775652
