19
Iteration:  1301charge 0 multiplicity 1
 O         0.530138        -0.199321         0.446103
 C        -0.780396         0.343419         0.897820
 C        -1.772136         0.992851         0.075002
 C        -2.459170         1.003894         1.530399
 C        -0.994873         1.415517         1.990346
 C        -4.100207         0.790364         1.826698
 O        -4.263367        -0.664195         1.866497
 C        -3.109500        -1.312204         1.106421
 C        -1.946398        -0.421333         1.618481
 H         0.981910        -0.536438         1.254070
 H        -1.562336         2.043007        -0.123844
 H        -2.147532         0.439923        -0.833382
 H        -0.674568         2.293232         1.710777
 H        -0.777611         0.983463         2.968381
 H        -4.438987         1.097326         2.848486
 H        -4.630541         1.349961         0.981848
 H        -2.850986        -2.336997         1.518712
 H        -3.176311        -1.200920         0.043792
 H        -1.707985        -0.781422         2.692703
