19
Iteration:  3642charge 0 multiplicity 1
 O         0.394016        -0.140575         0.563237
 C        -0.874006         0.300887         0.773971
 C        -1.994340         0.816250        -0.050770
 C        -2.459273         0.985842         1.573500
 C        -0.931529         1.530403         1.758219
 C        -3.987371         0.738200         1.947696
 O        -4.237416        -0.570751         1.485490
 C        -3.002292        -1.347898         1.547609
 C        -1.785320        -0.437075         1.847072
 H         0.856760         0.443927         0.064347
 H        -1.887774         1.697107        -0.717015
 H        -2.362167        -0.003166        -0.627401
 H        -0.627946         2.522978         1.298376
 H        -0.518181         1.461976         2.752525
 H        -4.098202         0.875242         3.040380
 H        -4.664582         1.404022         1.468182
 H        -2.967496        -2.151159         2.319532
 H        -3.059734        -1.913481         0.583778
 H        -1.438655        -0.710281         2.871403
