19
Iteration:  2508
 O         0.332950        -0.272008         0.442169
 C        -0.805738         0.326373         0.943121
 C        -1.799535         1.024647         0.060558
 C        -2.497305         0.976460         1.488003
 C        -1.098002         1.490346         1.944362
 C        -3.961568         0.808523         1.776047
 O        -4.166011        -0.614481         1.774577
 C        -3.036767        -1.364409         1.246625
 C        -1.830701        -0.490894         1.728722
 H         1.110670         0.244850         0.649252
 H        -1.658035         2.033187        -0.309196
 H        -2.197190         0.343963        -0.653932
 H        -0.773065         2.609358         1.606781
 H        -0.749623         1.293513         2.961633
 H        -4.292760         1.180105         2.767230
 H        -4.726883         1.214590         1.068009
 H        -3.139113        -2.345810         1.789005
 H        -3.045614        -1.699043         0.212739
 H        -1.514241        -0.664881         2.796258
