19
Iteration:  1973
 O         0.510099        -0.054549         0.472206
 C        -0.749950         0.319880         0.899189
 C        -1.898550         0.882075        -0.033176
 C        -2.476410         0.879024         1.458209
 C        -0.939313         1.427478         1.920209
 C        -3.968068         0.791519         2.001749
 O        -4.282379        -0.544922         1.612425
 C        -3.163109        -1.316513         1.330233
 C        -1.914245        -0.497038         1.701940
 H         0.851602        -0.415910         1.444223
 H        -1.640818         1.802114        -0.660304
 H        -2.302316         0.077856        -0.659780
 H        -0.851158         2.505707         1.499820
 H        -0.602851         1.369618         2.887383
 H        -3.930298         0.807712         3.128490
 H        -4.854564         1.394259         1.667432
 H        -3.191060        -2.259296         1.821454
 H        -3.102177        -1.489321         0.196196
 H        -1.373399        -0.747276         2.576597
