19
Iteration:   875charge 0 multiplicity 1
 O         0.387377        -0.113752         0.408704
 C        -0.806892         0.370323         0.913448
 C        -2.052246         0.916963         0.125516
 C        -2.419051         0.894841         1.630033
 C        -0.935430         1.514329         1.982875
 C        -3.871276         0.827772         1.855300
 O        -4.162060        -0.485903         1.372305
 C        -3.090972        -1.372983         1.365905
 C        -1.846538        -0.613935         1.797856
 H         0.659903        -1.074313         0.851773
 H        -2.133869         1.937082        -0.383761
 H        -2.513012         0.302239        -0.605168
 H        -0.847560         2.534315         1.687483
 H        -0.642645         1.354008         3.039737
 H        -4.277442         0.947117         2.874169
 H        -4.473241         1.442772         1.187909
 H        -3.329138        -2.105723         2.126235
 H        -3.015618        -2.055063         0.481907
 H        -1.425817        -0.840400         2.782730
