19
Iteration:  1361charge 0 multiplicity 1
 O         0.542210        -0.117738         0.471972
 C        -0.758673         0.332605         0.895643
 C        -1.823423         0.898139         0.054730
 C        -2.471804         0.915066         1.485344
 C        -0.976808         1.379371         2.029775
 C        -3.957473         0.794822         1.853879
 O        -4.325589        -0.586433         1.764780
 C        -3.184699        -1.259618         1.159789
 C        -1.943907        -0.564669         1.664459
 H         1.313349         0.470007         0.969437
 H        -1.696742         1.929852        -0.355084
 H        -2.349912         0.220485        -0.614248
 H        -0.600378         2.505135         1.789868
 H        -0.628249         1.180461         3.064328
 H        -4.131853         0.995119         2.893006
 H        -4.562223         1.460682         1.301331
 H        -3.159086        -2.317143         1.325549
 H        -3.289118        -1.202619         0.030676
 H        -1.631538        -0.645251         2.687482
