19
Iteration:  2032
 O         0.331564        -0.186869         0.304696
 C        -0.801358         0.327918         0.939309
 C        -1.997282         0.838937         0.185106
 C        -2.448049         0.968311         1.654831
 C        -0.958522         1.527510         1.980052
 C        -3.941014         0.822461         1.904039
 O        -4.217194        -0.536269         1.324375
 C        -2.978818        -1.362726         1.338803
 C        -1.813243        -0.413998         1.839906
 H         0.757397        -0.836506         0.861543
 H        -1.690291         1.697488        -0.415299
 H        -2.708163         0.144098        -0.333272
 H        -0.856221         2.545166         1.760139
 H        -0.582716         1.324537         3.047424
 H        -4.337708         0.894089         2.957669
 H        -4.537323         1.476159         1.272003
 H        -3.076481        -2.174293         2.098158
 H        -2.739124        -1.911013         0.325680
 H        -1.469095        -0.796472         2.841741
