19
Iteration:  1312charge 0 multiplicity 1
 O         0.450127        -0.206838         0.484523
 C        -0.754181         0.332202         0.939896
 C        -1.781790         1.106275        -0.003855
 C        -2.494236         0.954756         1.481140
 C        -1.029348         1.397035         2.007801
 C        -3.960845         0.776347         1.830706
 O        -4.204598        -0.662625         1.844851
 C        -3.127301        -1.273292         1.155797
 C        -1.959160        -0.496705         1.634785
 H         1.060323        -0.241281         1.132863
 H        -1.541250         2.108194        -0.368908
 H        -2.285722         0.492410        -0.796188
 H        -0.679488         2.324389         1.899713
 H        -0.800777         1.103667         3.034602
 H        -4.412946         1.262371         2.714319
 H        -4.561339         1.127219         0.928948
 H        -3.164635        -2.354292         1.494189
 H        -3.344783        -1.347374         0.099999
 H        -1.582293        -0.840429         2.642620
