19
Iteration:   394
 O         0.445367        -0.200384         0.377914
 C        -0.787980         0.333867         0.938408
 C        -1.846077         0.973278        -0.017030
 C        -2.457427         0.871974         1.482004
 C        -1.099701         1.568488         1.970902
 C        -3.974628         0.825595         1.730248
 O        -4.235202        -0.596033         1.767403
 C        -3.041590        -1.345812         1.382941
 C        -1.848966        -0.518872         1.794299
 H         0.685249        -1.021286         0.886406
 H        -1.680468         2.038296        -0.340855
 H        -2.391304         0.223229        -0.709335
 H        -0.891414         2.581418         1.543086
 H        -0.695879         1.470267         2.961295
 H        -4.179239         1.245983         2.666434
 H        -4.511991         1.359836         0.976894
 H        -3.262678        -2.294533         1.837086
 H        -2.874114        -1.477850         0.224051
 H        -1.551390        -0.600182         2.852444
