19
Iteration:  2496
 O         0.373660        -0.229554         0.516144
 C        -0.882929         0.290994         0.933757
 C        -1.899762         1.018120         0.005616
 C        -2.438349         0.999542         1.469627
 C        -1.034074         1.492163         1.973958
 C        -3.950085         0.785520         1.764066
 O        -4.159058        -0.622714         1.743630
 C        -3.018839        -1.374702         1.314504
 C        -1.895894        -0.539023         1.725658
 H         0.880672         0.533181         0.241164
 H        -1.402620         1.873971        -0.339793
 H        -2.398464         0.630227        -0.900739
 H        -0.492800         2.489221         1.542494
 H        -0.896080         1.337845         3.027920
 H        -4.078760         1.098648         2.803135
 H        -4.542477         1.413149         1.051438
 H        -3.080743        -2.387750         1.790338
 H        -3.121466        -1.310748         0.249449
 H        -1.533519        -0.838154         2.742372
