19
Iteration:  4525
 O         0.445224        -0.224504         0.468380
 C        -0.796279         0.400372         0.905837
 C        -1.932240         0.676942        -0.069028
 C        -2.501595         0.930157         1.423504
 C        -1.111994         1.668426         1.720811
 C        -3.934764         0.794261         1.913344
 O        -4.221455        -0.582065         1.777714
 C        -2.984602        -1.303466         1.344420
 C        -1.823939        -0.436601         1.871731
 H         1.016114        -0.341040         1.220740
 H        -1.790226         1.607409        -0.640598
 H        -2.416239        -0.097729        -0.633262
 H        -0.982836         2.729584         1.344576
 H        -0.934812         1.693759         2.829990
 H        -4.099731         1.129123         2.940318
 H        -4.643558         1.226057         1.154754
 H        -2.935520        -2.227253         1.961585
 H        -2.928686        -1.618700         0.282710
 H        -1.507561        -0.671936         2.876471
