19
Iteration:  2776charge 0 multiplicity 1
 O         0.522591        -0.107791         0.477001
 C        -0.752139         0.294153         0.921899
 C        -1.919120         0.825545         0.001951
 C        -2.454794         0.927161         1.405092
 C        -1.037784         1.687853         1.896665
 C        -4.009703         0.849935         1.896111
 O        -4.213918        -0.611017         1.748460
 C        -3.061250        -1.448641         1.360345
 C        -1.925515        -0.464409         1.712396
 H         0.517976        -1.022300         0.462880
 H        -1.560613         1.685039        -0.599029
 H        -2.353608         0.036813        -0.623878
 H        -0.722551         2.650584         1.435022
 H        -0.951685         1.375977         2.989131
 H        -4.269103         1.162782         2.939599
 H        -4.578260         1.412351         1.146882
 H        -3.047330        -2.355182         1.943001
 H        -3.119714        -1.566574         0.218391
 H        -1.593460        -0.646263         2.753775
