19
Iteration:  3138charge 0 multiplicity 1
 O         0.477152        -0.321997         0.555289
 C        -0.797286         0.301726         0.848056
 C        -1.922724         0.841362        -0.074775
 C        -2.466135         0.991253         1.409015
 C        -1.190119         1.710809         1.891044
 C        -3.954803         0.829486         1.654176
 O        -4.127177        -0.678692         2.002486
 C        -2.980379        -1.377073         1.397438
 C        -1.871746        -0.379961         1.744362
 H         0.723089         0.121896        -0.233179
 H        -1.853271         1.834341        -0.609885
 H        -2.588331         0.096875        -0.562961
 H        -0.662363         2.538688         1.376134
 H        -0.989751         1.674850         2.968152
 H        -4.280645         1.316308         2.573162
 H        -4.548272         1.116409         0.797485
 H        -2.916586        -2.362383         1.845129
 H        -3.301794        -1.449378         0.313330
 H        -1.643334        -0.611392         2.797903
