19
Iteration:  2954charge 0 multiplicity 1
 O         0.358713        -0.220130         0.516553
 C        -0.807638         0.359544         0.985065
 C        -2.099607         0.732977         0.015159
 C        -2.490792         0.967460         1.495270
 C        -1.024352         1.607910         1.783765
 C        -3.934525         0.794028         1.853251
 O        -4.109891        -0.636069         1.466630
 C        -2.941406        -1.299874         1.496094
 C        -1.798087        -0.346457         1.888174
 H         0.261264        -0.462016        -0.490760
 H        -1.926845         1.679513        -0.443590
 H        -2.562739        -0.036120        -0.626519
 H        -0.590902         2.571689         1.416764
 H        -0.672348         1.376853         2.774662
 H        -4.106540         0.859188         2.932239
 H        -4.559668         1.458242         1.244860
 H        -3.043149        -1.965427         2.361646
 H        -2.757396        -1.818681         0.570278
 H        -1.531448        -0.464961         2.931176
