19
Iteration:   929
 O         0.424595        -0.160711         0.460943
 C        -0.765691         0.357878         0.908024
 C        -1.846437         0.835865         0.069106
 C        -2.474924         0.989592         1.480097
 C        -0.979272         1.468174         1.958403
 C        -3.814935         0.768904         2.005796
 O        -4.315375        -0.525797         1.524981
 C        -3.127938        -1.408518         1.236359
 C        -1.966506        -0.445746         1.738620
 H         1.315234         0.038977         1.041301
 H        -1.758811         1.774048        -0.600084
 H        -2.330960         0.060627        -0.491980
 H        -0.741997         2.474590         1.630206
 H        -0.724476         1.252870         2.997472
 H        -3.869876         0.786517         3.171990
 H        -4.646054         1.444303         1.662895
 H        -3.211837        -2.410210         1.711557
 H        -2.932417        -1.449711         0.098690
 H        -1.810902        -0.494979         2.839559
