19
Iteration:  4198charge 0 multiplicity 1
 O         0.190652        -0.274843         0.403245
 C        -0.918116         0.345374         0.951805
 C        -1.997750         0.757464        -0.020514
 C        -2.422655         0.915627         1.607984
 C        -1.145077         1.761829         1.784714
 C        -3.860869         0.789918         1.833625
 O        -4.087630        -0.562502         1.399735
 C        -2.845875        -1.374972         1.579233
 C        -1.757754        -0.440607         1.927341
 H         1.069052         0.039421         0.828235
 H        -1.813893         1.566838        -0.697779
 H        -2.751228         0.014255        -0.432350
 H        -1.102202         2.580597         1.093113
 H        -0.654205         1.844242         2.763945
 H        -4.180632         0.747900         2.919675
 H        -4.477613         1.463263         1.202646
 H        -3.120563        -2.020324         2.455866
 H        -2.727120        -2.001874         0.728761
 H        -1.184304        -0.608978         2.912521
