19
Iteration:  3719charge 0 multiplicity 1
 O         0.513326        -0.087648         0.504726
 C        -0.761313         0.277704         0.867383
 C        -2.005683         0.871681        -0.077564
 C        -2.458833         0.987731         1.323116
 C        -0.990655         1.552352         1.817939
 C        -4.003065         0.758918         1.730631
 O        -4.121453        -0.637818         2.011226
 C        -3.129612        -1.381721         1.375026
 C        -1.896982        -0.468991         1.750765
 H         0.836663        -0.571329         1.445503
 H        -1.603225         1.915995        -0.439009
 H        -2.672627         0.462444        -0.738471
 H        -0.721409         2.582466         1.352436
 H        -0.592055         1.434491         2.831805
 H        -4.229652         1.220146         2.703654
 H        -4.616900         1.068910         0.915668
 H        -3.226779        -2.437181         1.725629
 H        -3.205007        -1.336408         0.223265
 H        -1.945187        -0.619747         2.886015
