19
Iteration:  4437
 O         0.398626        -0.096300         0.395513
 C        -0.859300         0.271806         0.861047
 C        -1.998415         0.721088         0.002530
 C        -2.433003         0.868411         1.464339
 C        -1.137543         1.630954         1.741092
 C        -3.871268         0.825546         1.936307
 O        -4.126100        -0.530146         1.395611
 C        -3.022660        -1.353842         1.690963
 C        -1.809373        -0.477879         1.900571
 H         0.812264        -0.229291         1.358178
 H        -1.770399         1.547428        -0.649484
 H        -2.668461        -0.035884        -0.469369
 H        -1.172346         2.578250         1.121136
 H        -0.720701         1.715062         2.797680
 H        -3.851069         0.899352         3.018774
 H        -4.619411         1.489592         1.440267
 H        -3.251184        -2.109387         2.512825
 H        -2.850341        -1.978869         0.764028
 H        -1.355451        -0.398531         2.871196
