19
Iteration:  3731charge 0 multiplicity 1
 O         0.517849        -0.108052         0.530001
 C        -0.814706         0.324069         0.845183
 C        -1.958177         0.925095        -0.068083
 C        -2.491875         0.946101         1.420241
 C        -1.040042         1.525394         1.804800
 C        -3.950325         0.771858         1.676208
 O        -4.171121        -0.618912         2.039876
 C        -3.074276        -1.356900         1.410236
 C        -1.876933        -0.504219         1.692238
 H         0.760532        -0.864025         0.939087
 H        -1.719547         1.958498        -0.545795
 H        -2.390702         0.329300        -0.803434
 H        -0.861469         2.598440         1.533887
 H        -0.757637         1.329982         2.850908
 H        -4.383365         1.398689         2.445825
 H        -4.551207         0.968190         0.802251
 H        -3.020355        -2.339968         1.854727
 H        -3.362517        -1.514006         0.309680
 H        -1.447658        -0.523408         2.740503
