19
Iteration:  3921charge 0 multiplicity 1
 O         0.470466        -0.081773         0.452710
 C        -0.774034         0.348201         0.868232
 C        -2.011987         0.699034         0.029641
 C        -2.461560         0.924918         1.382041
 C        -1.086320         1.666079         1.732728
 C        -3.881582         0.799456         1.897775
 O        -4.234999        -0.604436         1.580842
 C        -3.004377        -1.393181         1.576027
 C        -1.835180        -0.409917         1.906300
 H         0.347914        -0.959646         0.388415
 H        -2.055799         1.471208        -0.752950
 H        -2.550413        -0.221285        -0.346604
 H        -0.869058         2.617889         1.180419
 H        -0.731058         1.710753         2.783126
 H        -3.986506         0.973934         2.969956
 H        -4.643435         1.393922         1.328847
 H        -2.995981        -2.215034         2.299622
 H        -2.900252        -1.862748         0.549135
 H        -1.386104        -0.252236         2.949268
