19
Iteration:  4435
 O         0.404549        -0.093390         0.411588
 C        -0.857347         0.268562         0.862936
 C        -2.004494         0.699556        -0.006129
 C        -2.439633         0.858549         1.462142
 C        -1.137852         1.632891         1.736747
 C        -3.866991         0.837387         1.946221
 O        -4.126316        -0.522549         1.399596
 C        -3.008995        -1.350064         1.675584
 C        -1.809329        -0.481318         1.895662
 H         0.779946        -0.163354         1.267788
 H        -1.802541         1.577103        -0.622118
 H        -2.706268        -0.061155        -0.472292
 H        -1.226967         2.587938         1.184278
 H        -0.707757         1.745276         2.779024
 H        -3.823288         0.858518         3.039389
 H        -4.617812         1.528528         1.415936
 H        -3.292036        -2.048140         2.483947
 H        -2.875446        -2.004867         0.777531
 H        -1.347991        -0.464389         2.875589
