19
Iteration:  2839charge 0 multiplicity 1
 O         0.461620        -0.215520         0.539028
 C        -0.787155         0.260269         0.904431
 C        -1.905065         0.831525         0.024014
 C        -2.481020         0.961952         1.455591
 C        -1.098445         1.595467         1.822979
 C        -3.914982         0.829716         1.796526
 O        -4.222831        -0.660092         1.842053
 C        -3.054252        -1.321886         1.349841
 C        -1.871543        -0.401578         1.700858
 H         0.980982         0.463040         0.186989
 H        -1.697221         1.657117        -0.609587
 H        -2.406198        -0.056208        -0.422174
 H        -0.858882         2.550236         1.396106
 H        -0.841638         1.507434         2.967038
 H        -4.360684         1.263530         2.680690
 H        -4.421997         1.143771         0.874727
 H        -2.979774        -2.298722         1.829054
 H        -3.142021        -1.356360         0.256576
 H        -1.411724        -0.650977         2.706991
