19
Iteration:  3936charge 0 multiplicity 1
 O         0.607641        -0.095028         0.536205
 C        -0.793170         0.322201         0.867680
 C        -1.980903         0.670883        -0.106624
 C        -2.524101         0.995948         1.492160
 C        -1.065396         1.622530         1.615191
 C        -4.004187         0.735799         1.976240
 O        -4.241944        -0.607233         1.645309
 C        -3.001161        -1.351910         1.551286
 C        -1.866046        -0.327014         1.847160
 H         0.609412        -0.958939        -0.023708
 H        -1.739685         1.670141        -0.615787
 H        -2.370220        -0.028321        -0.807164
 H        -0.949640         2.557419         1.088516
 H        -0.622584         1.616500         2.605148
 H        -3.981130         0.893690         3.090341
 H        -4.832192         1.388031         1.702489
 H        -3.169656        -2.252872         2.261100
 H        -2.954034        -1.838182         0.556688
 H        -1.684160        -0.539228         2.926207
