19
Iteration:  1972charge 0 multiplicity 1
 O         0.504538        -0.055710         0.474104
 C        -0.752355         0.325478         0.895659
 C        -1.894524         0.875622        -0.031454
 C        -2.474970         0.884822         1.448320
 C        -0.939502         1.425347         1.918634
 C        -3.970327         0.799798         2.008158
 O        -4.284058        -0.546314         1.615299
 C        -3.153574        -1.321026         1.319817
 C        -1.907825        -0.505942         1.710049
 H         0.845221        -0.392940         1.469099
 H        -1.656246         1.798368        -0.688057
 H        -2.316574         0.109946        -0.664646
 H        -0.871279         2.501022         1.518892
 H        -0.595123         1.347030         2.913509
 H        -3.927150         0.839458         3.127748
 H        -4.861724         1.387742         1.643170
 H        -3.185094        -2.280986         1.806611
 H        -3.140469        -1.442122         0.222524
 H        -1.371123        -0.753812         2.586206
