19
Iteration:  1711
 O         0.351279        -0.269762         0.518803
 C        -0.807149         0.399801         0.876630
 C        -1.974468         0.917676         0.084640
 C        -2.392910         0.843712         1.604222
 C        -1.148380         1.582994         1.930463
 C        -3.830935         0.864882         1.996204
 O        -4.261468        -0.503551         1.351826
 C        -3.003392        -1.382505         1.356554
 C        -1.813095        -0.565949         1.757731
 H         1.027916         0.120164        -0.258611
 H        -1.844172         1.934781        -0.313543
 H        -2.390820         0.125049        -0.510065
 H        -0.831099         2.664128         1.417258
 H        -0.765209         1.280789         2.916774
 H        -3.968423         0.707592         3.079402
 H        -4.386390         1.717930         1.638178
 H        -3.020693        -1.965758         2.205988
 H        -2.892874        -2.042446         0.444432
 H        -1.396304        -0.812920         2.769063
