19
Iteration:  3423charge 0 multiplicity 1
 O         0.371262        -0.157801         0.411294
 C        -0.859651         0.299576         0.942062
 C        -1.769361         0.901522        -0.079523
 C        -2.488228         0.987851         1.387773
 C        -1.055468         1.574649         1.839135
 C        -4.022430         0.833134         1.707705
 O        -4.163732        -0.704876         1.941657
 C        -2.931123        -1.353687         1.443151
 C        -1.892951        -0.446464         1.883290
 H         0.392338        -1.090565         0.050757
 H        -1.364513         1.871844        -0.495147
 H        -2.201404         0.152513        -0.935646
 H        -0.910177         2.496719         1.288745
 H        -0.773781         1.695987         2.923419
 H        -4.458554         1.237471         2.674950
 H        -4.626093         1.216127         0.875381
 H        -3.220163        -2.322014         1.826963
 H        -2.933415        -1.475689         0.306367
 H        -1.658408        -0.254818         2.970716
