19
Iteration:   440charge 0 multiplicity 1
 O         0.490944        -0.294835         0.588222
 C        -0.793289         0.343002         0.865476
 C        -1.943555         0.900345        -0.060941
 C        -2.497899         0.974480         1.410935
 C        -1.091720         1.469627         1.875533
 C        -3.964758         0.842173         1.875917
 O        -4.199014        -0.583967         1.825653
 C        -3.046354        -1.320048         1.233287
 C        -1.815965        -0.479355         1.743332
 H         1.200998         0.459420         0.727030
 H        -1.809453         1.872129        -0.444417
 H        -2.360493         0.145554        -0.788406
 H        -0.806593         2.489641         1.725406
 H        -0.954994         1.281189         3.006196
 H        -4.127572         1.264573         2.824393
 H        -4.644897         1.329165         1.213684
 H        -3.213648        -2.407770         1.445121
 H        -3.166140        -1.146026         0.139715
 H        -1.610421        -0.713600         2.816259
