19
Iteration:  3657
 O         0.471144        -0.177422         0.490755
 C        -0.794525         0.291918         0.941192
 C        -1.979919         0.778081        -0.021025
 C        -2.482448         0.939355         1.429273
 C        -1.076954         1.567912         1.765920
 C        -3.883835         0.831620         1.973718
 O        -4.227709        -0.578763         1.609862
 C        -2.997076        -1.404681         1.456932
 C        -1.900057        -0.426501         1.747164
 H         0.931467         0.701625         0.402826
 H        -1.653371         1.747810        -0.427966
 H        -2.624075         0.122865        -0.611007
 H        -0.907329         2.483344         1.252662
 H        -0.680386         1.424075         2.777108
 H        -3.973841         0.952691         3.057509
 H        -4.674777         1.483146         1.516531
 H        -3.111742        -2.113759         2.237232
 H        -2.932708        -1.897333         0.483265
 H        -1.558124        -0.459096         2.783003
