19
Iteration:  3124
 O         0.392010        -0.295743         0.603811
 C        -0.782915         0.322625         0.924793
 C        -1.872525         0.900630        -0.015547
 C        -2.513585         1.002214         1.392215
 C        -1.045440         1.602833         1.704900
 C        -4.045374         0.757517         1.737175
 O        -4.159211        -0.696745         2.008753
 C        -2.985434        -1.312390         1.374883
 C        -1.862634        -0.394132         1.720254
 H         0.807310         0.035218        -0.335030
 H        -1.465422         1.928163        -0.460105
 H        -2.154627         0.334796        -0.852096
 H        -1.022316         2.616725         1.332710
 H        -0.697546         1.656476         2.708806
 H        -4.533940         1.336978         2.564404
 H        -4.617870         0.913764         0.819276
 H        -2.825998        -2.249731         1.893851
 H        -3.035310        -1.550503         0.309635
 H        -1.552642        -0.419411         2.779264
