19
Iteration:   115
 O         0.351732        -0.275329         0.418912
 C        -0.799884         0.295583         0.967149
 C        -1.977307         0.920704         0.077436
 C        -2.433014         1.023201         1.486934
 C        -0.977880         1.679581         1.832523
 C        -3.977641         0.773986         1.638325
 O        -4.196359        -0.685890         1.791403
 C        -2.997887        -1.302440         1.381755
 C        -1.821347        -0.451295         1.847007
 H         0.866052        -0.887155         1.150872
 H        -1.611413         1.891627        -0.469942
 H        -2.605696         0.169375        -0.534210
 H        -0.792290         2.573263         1.224629
 H        -0.517845         1.713700         2.855414
 H        -4.479580         1.281973         2.569452
 H        -4.528048         1.114322         0.712083
 H        -3.002788        -2.373454         1.777422
 H        -2.970051        -1.462861         0.253278
 H        -1.692723        -0.629895         2.930223
