19
Iteration:   882charge 0 multiplicity 1
 O         0.420137        -0.119283         0.409292
 C        -0.826062         0.369845         0.896385
 C        -2.051842         0.944318         0.109934
 C        -2.416431         0.823350         1.594794
 C        -1.010872         1.510964         1.991340
 C        -3.867869         0.836011         1.854081
 O        -4.151581        -0.465002         1.378546
 C        -3.109033        -1.424234         1.388743
 C        -1.833237        -0.583585         1.822187
 H         0.832049        -0.953218         0.840687
 H        -2.050542         2.004078        -0.184644
 H        -2.585389         0.233432        -0.600307
 H        -0.726652         2.544890         1.525503
 H        -0.712142         1.350953         2.976640
 H        -4.065162         1.035825         2.982285
 H        -4.375366         1.697502         1.234633
 H        -3.345186        -2.240986         2.168322
 H        -3.010243        -1.787977         0.310548
 H        -1.538682        -0.963826         2.841448
