19
Iteration:   789
 O         0.551727        -0.129665         0.542477
 C        -0.779317         0.320454         0.902630
 C        -2.010848         0.927159         0.100327
 C        -2.458114         0.897046         1.543372
 C        -1.039586         1.417578         1.847328
 C        -3.870297         0.817339         1.969505
 O        -4.255055        -0.520582         1.540620
 C        -3.077438        -1.359317         1.220063
 C        -1.900746        -0.437537         1.731073
 H         0.530756        -0.958080         0.877974
 H        -1.977161         1.926410        -0.488492
 H        -2.569030         0.278939        -0.544564
 H        -0.736491         2.430665         1.587515
 H        -0.494697         1.215255         2.892861
 H        -4.090094         0.900656         3.040359
 H        -4.523106         1.474375         1.479209
 H        -3.378507        -2.231596         1.769641
 H        -2.954490        -1.614997         0.167352
 H        -1.580550        -0.717658         2.715675
