19
Iteration:    46charge 0 multiplicity 1
 O         0.624955         0.039980         0.520559
 C        -0.759633         0.267208         0.873421
 C        -1.784887         0.718809        -0.137601
 C        -2.478841         0.803020         1.395837
 C        -1.126143         1.506697         1.734538
 C        -3.944371         0.821261         2.024340
 O        -4.372477        -0.500007         1.751469
 C        -3.131089        -1.297875         1.426024
 C        -1.895703        -0.577263         1.731502
 H         1.206035        -0.191647         1.341509
 H        -1.695919         1.714361        -0.557683
 H        -2.381717        -0.043049        -0.816448
 H        -1.024112         2.520524         1.197063
 H        -0.687471         1.491916         2.679571
 H        -3.871263         1.068800         3.079780
 H        -4.661516         1.556665         1.576446
 H        -3.188656        -2.277534         1.997717
 H        -3.170606        -1.568383         0.360026
 H        -1.783497        -0.525334         2.813103
