19
Iteration:  4923charge 0 multiplicity 1
 O         0.388789        -0.178077         0.500863
 C        -0.832480         0.275448         0.940318
 C        -2.021415         0.678006         0.035824
 C        -2.457112         0.998409         1.450705
 C        -1.021619         1.656094         1.823186
 C        -3.865121         0.804771         1.816093
 O        -4.184530        -0.605549         1.656666
 C        -3.007459        -1.332844         1.350598
 C        -1.860518        -0.444300         1.884689
 H         0.959841         0.679528         0.173148
 H        -1.915595         1.523793        -0.577691
 H        -2.383834        -0.228971        -0.458199
 H        -0.856583         2.545509         1.164859
 H        -0.605466         1.758476         2.839993
 H        -4.081018         0.994416         2.912949
 H        -4.545361         1.444984         1.200713
 H        -3.137817        -2.244145         1.944110
 H        -2.915239        -1.640469         0.336615
 H        -1.666924        -0.641875         2.933093
