19
Iteration:   914charge 0 multiplicity 1
 O         0.418260        -0.100177         0.382962
 C        -0.769703         0.297616         1.003125
 C        -1.863034         0.813838        -0.012774
 C        -2.433090         0.946979         1.516639
 C        -1.000755         1.486749         1.994262
 C        -3.970520         0.767612         2.009396
 O        -4.266989        -0.502834         1.462061
 C        -3.115986        -1.306884         1.294753
 C        -1.887423        -0.489903         1.741267
 H         1.068432        -0.204461         1.091416
 H        -1.592668         1.731561        -0.493597
 H        -2.237042        -0.062900        -0.588611
 H        -0.474037         2.485383         1.659702
 H        -0.748146         1.263168         3.016436
 H        -3.865176         0.737506         3.098972
 H        -4.741133         1.540767         1.678365
 H        -3.212089        -2.212518         2.004654
 H        -3.223008        -1.696714         0.267958
 H        -1.582463        -0.832617         2.772327
