19
Iteration:  2881
 O         0.486574        -0.028834         0.488815
 C        -0.805777         0.242447         0.889883
 C        -1.898067         0.725629        -0.086706
 C        -2.423193         0.937683         1.405981
 C        -1.137401         1.522261         1.811115
 C        -3.847330         0.873026         1.915967
 O        -4.270832        -0.602602         1.766451
 C        -3.103783        -1.377656         1.380107
 C        -1.835789        -0.448674         1.699694
 H         0.986792        -0.037692         1.462481
 H        -1.655789         1.690203        -0.527490
 H        -2.472852        -0.075380        -0.734014
 H        -0.906620         2.477740         1.460834
 H        -0.993485         1.483764         2.958235
 H        -3.920553         1.142635         2.993285
 H        -4.553331         1.449465         1.257828
 H        -2.984443        -2.172984         2.226850
 H        -3.236005        -1.855228         0.395299
 H        -1.765374        -0.410124         2.825401
