19
Iteration:  3334
 O         0.516310        -0.056599         0.366899
 C        -0.749914         0.336625         0.865669
 C        -1.903123         0.620276        -0.032402
 C        -2.470448         0.951195         1.480341
 C        -1.103049         1.596566         1.721631
 C        -3.879895         0.774937         1.989781
 O        -4.309406        -0.523773         1.574286
 C        -3.083686        -1.405900         1.513657
 C        -1.862341        -0.373619         1.869596
 H         0.863761        -0.504333         1.093250
 H        -1.834071         1.497251        -0.689729
 H        -2.372036        -0.285210        -0.613429
 H        -0.969516         2.581818         1.273091
 H        -0.859335         1.570718         2.813839
 H        -3.937562         0.737565         3.131116
 H        -4.598281         1.525801         1.650721
 H        -3.098478        -2.069622         2.396508
 H        -2.933097        -2.036043         0.590668
 H        -1.609493        -0.438342         2.984331
