19
Iteration:   422
 O         0.354116        -0.239243         0.500020
 C        -0.849935         0.276991         0.975088
 C        -1.869669         0.859638         0.017278
 C        -2.452010         0.975130         1.475902
 C        -1.034278         1.504856         1.913342
 C        -3.934672         0.824604         1.787548
 O        -4.127664        -0.654890         1.839629
 C        -3.014931        -1.284346         1.186802
 C        -1.962968        -0.391334         1.665447
 H         1.155714         0.057739         1.072462
 H        -1.618751         1.773735        -0.596921
 H        -2.453240         0.289031        -0.643271
 H        -0.659577         2.473303         1.515045
 H        -0.606214         1.430038         2.947591
 H        -4.262819         1.256824         2.833192
 H        -4.626554         1.336763         1.036992
 H        -2.927229        -2.156219         1.861536
 H        -3.091320        -1.478816         0.151530
 H        -1.781843        -0.585584         2.737150
