19
Iteration:  1986
 O         0.556817        -0.062703         0.456574
 C        -0.780071         0.290183         0.901809
 C        -1.893918         0.890255         0.023875
 C        -2.450492         0.951150         1.551024
 C        -1.035062         1.498472         1.881390
 C        -3.878467         0.744177         1.999364
 O        -4.334833        -0.539730         1.537121
 C        -3.134049        -1.376439         1.353232
 C        -1.926376        -0.488609         1.675785
 H         1.006606        -0.663072         0.942371
 H        -1.740434         1.875754        -0.389667
 H        -2.356067         0.214680        -0.774953
 H        -0.618418         2.424569         1.426939
 H        -0.719958         1.350626         2.885788
 H        -3.868199         0.765702         3.123418
 H        -4.520923         1.542140         1.618455
 H        -3.212119        -2.112649         2.143575
 H        -3.222552        -1.919915         0.335683
 H        -1.787503        -0.656606         2.744927
