19
Iteration:  1144
 O         0.354135        -0.144011         0.373393
 C        -0.826422         0.224168         0.994408
 C        -1.929934         0.977263         0.131687
 C        -2.424221         0.958686         1.644298
 C        -0.964233         1.414329         1.979103
 C        -3.915073         0.744333         1.911359
 O        -4.207885        -0.493934         1.348243
 C        -3.083242        -1.336828         1.305500
 C        -1.934354        -0.521762         1.798574
 H         1.291912         0.044688         0.885406
 H        -1.501988         1.948741        -0.204497
 H        -2.410371         0.478633        -0.667805
 H        -0.717643         2.329550         1.307068
 H        -0.469821         1.439592         2.861177
 H        -4.035029         0.766279         3.015176
 H        -4.596295         1.468105         1.388525
 H        -3.038281        -2.188683         2.101547
 H        -2.836491        -1.700699         0.278878
 H        -1.773112        -0.617384         2.899903
