19
Iteration:  1940
 O         0.424980        -0.179460         0.452431
 C        -0.807674         0.248494         0.973065
 C        -1.938264         0.903088         0.058798
 C        -2.437355         0.875220         1.446952
 C        -1.119515         1.499275         2.000093
 C        -3.861344         0.862551         1.860972
 O        -4.124261        -0.555049         1.725760
 C        -3.075586        -1.312512         1.190121
 C        -1.912185        -0.526894         1.707699
 H         1.061497         0.144146         0.996698
 H        -1.686443         1.907462        -0.420367
 H        -2.469882         0.261495        -0.614036
 H        -1.158171         2.496652         1.453670
 H        -0.966379         1.565639         3.018801
 H        -3.969910         1.216614         2.924515
 H        -4.533713         1.433794         1.172014
 H        -3.087309        -2.317275         1.617580
 H        -3.238275        -1.415893         0.075802
 H        -1.603390        -0.851933         2.676153
