19
Iteration:  3503
 O         0.558655        -0.119245         0.465421
 C        -0.798221         0.295234         0.910282
 C        -1.836161         0.667737        -0.136054
 C        -2.527568         1.000660         1.352375
 C        -1.168328         1.550169         1.779232
 C        -3.890009         0.836086         2.046243
 O        -4.232865        -0.581524         1.787668
 C        -3.037022        -1.389818         1.361745
 C        -2.010234        -0.448715         1.816789
 H         1.163054         0.702109         0.757573
 H        -1.597254         1.633651        -0.796676
 H        -2.275434        -0.136274        -0.672783
 H        -0.707676         2.440214         1.288841
 H        -0.968312         1.458285         2.831387
 H        -3.680653         1.077412         3.130364
 H        -4.699389         1.487786         1.662393
 H        -3.242295        -2.366707         1.763504
 H        -3.084187        -1.390965         0.241748
 H        -1.580064        -0.549127         2.781679
