19
Iteration:  2327
 O         0.348530        -0.217442         0.369844
 C        -0.837865         0.292837         0.880203
 C        -1.952296         0.890204         0.145336
 C        -2.450147         0.938784         1.654172
 C        -1.031343         1.559461         1.978058
 C        -3.911667         0.808480         1.942271
 O        -4.212339        -0.476824         1.307322
 C        -3.005004        -1.414196         1.368316
 C        -1.805199        -0.510559         1.820221
 H         1.110155         0.012814         0.773337
 H        -1.907055         1.981434        -0.293405
 H        -2.542231         0.266853        -0.529021
 H        -0.771076         2.513445         1.560642
 H        -0.571471         1.253652         3.052797
 H        -4.149747         0.840471         3.043377
 H        -4.656381         1.473523         1.499313
 H        -3.238825        -2.254033         2.023264
 H        -2.808029        -1.782083         0.349211
 H        -1.393242        -0.692327         2.809976
