19
Iteration:   727charge 0 multiplicity 1
 O         0.596602        -0.128563         0.490667
 C        -0.762372         0.263004         0.930696
 C        -1.963682         0.998436         0.032805
 C        -2.425127         0.972534         1.483874
 C        -1.060601         1.478504         1.997608
 C        -3.926991         0.840058         1.807683
 O        -4.248795        -0.583304         1.776231
 C        -3.141226        -1.367997         1.174449
 C        -1.918962        -0.559935         1.699677
 H         0.523891        -1.009338         0.488988
 H        -1.639464         1.955663        -0.264757
 H        -2.650169         0.424979        -0.583604
 H        -0.729606         2.460753         1.743114
 H        -0.708725         1.253852         3.063771
 H        -4.166628         1.260288         2.844493
 H        -4.445881         1.370368         0.982174
 H        -3.218190        -2.381373         1.688372
 H        -3.165964        -1.433828         0.068878
 H        -1.638189        -0.718336         2.782942
