19
Iteration:   938charge 0 multiplicity 1
 O         0.450034        -0.195808         0.478953
 C        -0.760702         0.296701         0.942379
 C        -1.942247         0.907208         0.005788
 C        -2.418786         0.963190         1.486261
 C        -1.034104         1.469977         1.932187
 C        -3.855650         0.810071         2.006926
 O        -4.301539        -0.557557         1.549469
 C        -3.059240        -1.330107         1.204297
 C        -1.954465        -0.502875         1.758801
 H         1.227106         0.202599         1.132360
 H        -1.611683         1.888306        -0.422003
 H        -2.412528         0.171115        -0.635721
 H        -0.897795         2.594487         1.652488
 H        -0.748353         1.335542         2.941410
 H        -3.697231         0.887829         3.129115
 H        -4.543062         1.640243         1.588531
 H        -3.242955        -2.292532         1.787962
 H        -3.045391        -1.661097         0.082448
 H        -1.773911        -0.800360         2.842612
