19
Iteration:  1088charge 0 multiplicity 1
 O         0.488439        -0.090500         0.506854
 C        -0.760113         0.308171         0.945995
 C        -1.878766         0.896842         0.046402
 C        -2.417314         0.894297         1.506019
 C        -1.097536         1.498135         1.984835
 C        -3.840806         0.889297         1.964468
 O        -4.259742        -0.523977         1.616440
 C        -3.141550        -1.399891         1.161673
 C        -1.924983        -0.567296         1.680568
 H         0.582297        -1.018813         0.601523
 H        -1.721083         1.910941        -0.344998
 H        -2.270556         0.263880        -0.767647
 H        -0.958210         2.596385         1.694721
 H        -0.830676         1.339897         2.987443
 H        -3.872236         1.003529         3.066333
 H        -4.637504         1.539143         1.545336
 H        -3.165239        -2.442259         1.625102
 H        -3.083173        -1.492662         0.031483
 H        -1.635003        -0.811159         2.710180
