19
Iteration:  3861charge 0 multiplicity 1
 O         0.327839        -0.225564         0.345362
 C        -0.805033         0.348830         0.903288
 C        -1.958183         0.776795         0.046757
 C        -2.454739         1.009194         1.455192
 C        -0.975722         1.695795         1.767641
 C        -3.946516         0.731976         1.910311
 O        -4.214728        -0.653062         1.455516
 C        -2.987337        -1.435917         1.617494
 C        -1.857014        -0.291719         1.893141
 H         1.157721         0.135161         0.896893
 H        -1.853980         1.648398        -0.648188
 H        -2.358717        -0.102651        -0.339770
 H        -0.769600         2.587484         1.180198
 H        -0.387068         1.575038         2.683548
 H        -3.965107         0.671439         3.042322
 H        -4.725798         1.346278         1.470969
 H        -3.079586        -1.874095         2.613441
 H        -3.002719        -2.174731         0.844002
 H        -1.683655        -0.488830         2.903034
