19
Iteration:  2906
 O         0.536663        -0.002836         0.486983
 C        -0.773417         0.352726         0.871999
 C        -1.934241         0.751813        -0.044671
 C        -2.480792         0.917257         1.398254
 C        -1.059417         1.494788         1.770165
 C        -3.935568         0.828036         1.935736
 O        -4.247490        -0.553715         1.638238
 C        -3.112603        -1.416475         1.491852
 C        -1.839887        -0.464934         1.808987
 H         0.622700        -0.921552         0.981265
 H        -1.915169         1.603918        -0.739066
 H        -2.296671        -0.167375        -0.402554
 H        -0.840514         2.545131         1.381441
 H        -0.854634         1.442807         2.895074
 H        -3.925449         1.127068         3.004299
 H        -4.697307         1.308921         1.337975
 H        -3.253300        -2.312297         2.079761
 H        -3.044189        -1.519487         0.377534
 H        -1.454821        -0.466312         2.890002
