19
Iteration:  4381
 O         0.493307        -0.147641         0.491415
 C        -0.849010         0.278567         0.937400
 C        -1.923688         0.791602        -0.048423
 C        -2.477886         0.903857         1.416233
 C        -1.126104         1.563796         1.669861
 C        -3.880005         0.816917         1.909288
 O        -4.247930        -0.585888         1.692967
 C        -2.985142        -1.420825         1.522824
 C        -1.900910        -0.404404         1.835563
 H         0.865366         0.710977         0.418320
 H        -1.592728         1.670910        -0.601243
 H        -2.364609         0.026757        -0.756131
 H        -0.592673         2.419365         1.181582
 H        -0.858463         1.646945         2.793677
 H        -4.019808         1.141328         2.937030
 H        -4.586764         1.415850         1.215501
 H        -3.025349        -2.328711         2.229239
 H        -3.021947        -1.705253         0.433680
 H        -1.685912        -0.338134         2.890779
