19
Iteration:  4379charge 0 multiplicity 1
 O         0.480108        -0.152658         0.495263
 C        -0.853982         0.266601         0.928105
 C        -1.908423         0.809191        -0.041307
 C        -2.503163         0.902203         1.388618
 C        -1.123701         1.561246         1.698401
 C        -3.877510         0.822644         1.900285
 O        -4.239389        -0.589671         1.707644
 C        -2.975110        -1.422028         1.535987
 C        -1.881504        -0.403961         1.814142
 H         0.858788         0.652401         0.373057
 H        -1.600570         1.691486        -0.658376
 H        -2.349750         0.041469        -0.699141
 H        -0.650869         2.419651         1.198576
 H        -0.904290         1.660747         2.800714
 H        -4.097391         1.174739         2.919322
 H        -4.554602         1.422345         1.206589
 H        -3.057304        -2.315040         2.180619
 H        -3.006308        -1.677987         0.468491
 H        -1.677272        -0.346197         2.879165
