19
Iteration:  4412charge 0 multiplicity 1
 O         0.503350        -0.113829         0.502330
 C        -0.800466         0.368408         0.880865
 C        -2.088093         0.568531         0.021666
 C        -2.437709         0.880711         1.525801
 C        -1.110996         1.630772         1.668904
 C        -3.898216         0.803886         2.017222
 O        -4.257886        -0.457151         1.460499
 C        -3.036013        -1.373289         1.536978
 C        -1.772000        -0.462544         1.794958
 H         1.057427         0.605148         1.079100
 H        -2.071894         1.244056        -0.855576
 H        -2.407656        -0.456514        -0.326031
 H        -0.805046         2.464111         1.039212
 H        -0.747059         1.594939         2.742266
 H        -3.902427         0.908053         3.112534
 H        -4.556568         1.544268         1.436500
 H        -3.082311        -2.199995         2.268268
 H        -3.035633        -1.875436         0.554570
 H        -1.324184        -0.401883         2.781712
