19
Iteration:  3769charge 0 multiplicity 1
 O         0.540632        -0.132527         0.445526
 C        -0.810759         0.274451         0.939906
 C        -1.913611         0.886583        -0.084528
 C        -2.486696         0.958904         1.323296
 C        -1.181191         1.603827         1.872605
 C        -3.882332         0.792922         1.732456
 O        -4.164760        -0.638502         1.943142
 C        -3.072648        -1.372718         1.425517
 C        -1.888134        -0.428519         1.836483
 H         0.263881        -0.655037        -0.288056
 H        -1.645251         1.811849        -0.527508
 H        -2.256422        -0.085542        -0.637895
 H        -0.835915         2.590180         1.527898
 H        -1.119259         1.265839         2.893495
 H        -4.010105         1.309994         2.713742
 H        -4.525819         1.217861         0.905392
 H        -3.103109        -2.333703         2.023300
 H        -3.018182        -1.512734         0.338514
 H        -1.600361        -0.569117         2.898447
