19
Iteration:  1338
 O         0.435865        -0.155945         0.490069
 C        -0.805079         0.288117         0.928280
 C        -1.828774         0.988481         0.055289
 C        -2.463401         0.903769         1.476390
 C        -1.219594         1.421008         2.037244
 C        -3.822226         0.900138         1.806000
 O        -4.150155        -0.529502         1.852088
 C        -3.093570        -1.348380         1.095074
 C        -1.922766        -0.644727         1.609973
 H         1.079656         0.184006         0.992054
 H        -1.709591         2.099126        -0.142967
 H        -2.386492         0.451304        -0.700338
 H        -0.823357         2.517457         1.969493
 H        -1.055511         1.086247         3.107961
 H        -4.086047         1.355565         2.718723
 H        -4.392457         1.383084         1.040253
 H        -3.123570        -2.317514         1.526922
 H        -3.399839        -1.513789         0.016098
 H        -1.474972        -1.097222         2.504065
