19
Iteration:  3009
 O         0.376578        -0.211972         0.502595
 C        -0.803906         0.356652         0.818135
 C        -2.053790         0.719177        -0.013513
 C        -2.424717         0.922349         1.507962
 C        -1.175838         1.593348         1.825549
 C        -3.849010         0.803837         1.865691
 O        -4.230680        -0.523229         1.470041
 C        -2.923773        -1.380578         1.628761
 C        -1.745805        -0.430235         1.798212
 H         1.099214         0.463045         0.566290
 H        -1.996847         1.533856        -0.669039
 H        -2.656176        -0.077825        -0.542073
 H        -1.054981         2.558484         1.220564
 H        -0.742255         1.601492         2.861494
 H        -3.992110         0.838740         2.956799
 H        -4.493455         1.607150         1.445386
 H        -3.168531        -2.073139         2.441255
 H        -2.847185        -1.994716         0.746783
 H        -1.428455        -0.426388         2.835274
