19
Iteration:   242
 O         0.253510        -0.273813         0.400942
 C        -0.889406         0.342312         0.930397
 C        -1.931721         0.823825         0.031241
 C        -2.420263         0.928252         1.566241
 C        -1.059050         1.669903         1.929889
 C        -3.891048         0.817942         1.780163
 O        -4.203923        -0.550677         1.511304
 C        -2.955795        -1.416634         1.469667
 C        -1.750702        -0.463266         1.816407
 H         1.111362         0.312197         0.743934
 H        -1.745313         1.658376        -0.475694
 H        -2.378705         0.056003        -0.636179
 H        -0.791889         2.736404         1.597501
 H        -0.712438         1.379725         2.891907
 H        -4.327288         1.140625         2.846110
 H        -4.373805         1.457218         1.020047
 H        -3.030958        -2.081580         2.327179
 H        -3.008354        -1.945815         0.546668
 H        -1.434253        -0.668649         2.849170
