19
Iteration:  2342
 O         0.293552        -0.274596         0.273939
 C        -0.759586         0.411218         1.021883
 C        -2.040523         0.863645         0.113462
 C        -2.444660         0.999429         1.621092
 C        -0.936591         1.510420         2.002649
 C        -3.941964         0.721371         1.949134
 O        -4.170468        -0.523415         1.284861
 C        -2.970681        -1.329548         1.342468
 C        -1.895712        -0.411671         1.865679
 H         1.132304        -0.100945         0.854063
 H        -1.822833         1.685170        -0.488786
 H        -2.383406        -0.043402        -0.438229
 H        -0.632319         2.622203         1.843095
 H        -0.770202         1.245684         3.114504
 H        -4.183626         0.670407         3.027813
 H        -4.520676         1.539585         1.424549
 H        -3.143516        -2.223830         2.059247
 H        -2.879475        -1.811158         0.336890
 H        -1.561441        -0.704644         2.912462
