19
Iteration:  1474charge 0 multiplicity 1
 O         0.392055        -0.172250         0.420727
 C        -0.831507         0.358638         0.888495
 C        -2.069049         0.894642         0.189064
 C        -2.441967         0.989161         1.720988
 C        -0.935508         1.444434         1.981575
 C        -3.877514         0.798968         1.868433
 O        -4.150074        -0.471562         1.241204
 C        -3.014097        -1.421165         1.369746
 C        -1.839432        -0.447971         1.825380
 H         0.147653        -0.932490        -0.025358
 H        -1.975123         1.855437        -0.293708
 H        -2.641087         0.168064        -0.401208
 H        -0.873714         2.597134         1.820008
 H        -0.664104         1.201799         3.057389
 H        -4.157096         0.682657         2.893194
 H        -4.497366         1.590864         1.432187
 H        -3.275168        -2.215769         2.151683
 H        -3.019799        -1.999530         0.460888
 H        -1.466023        -0.751308         2.779607
