19
Iteration:  1715charge 0 multiplicity 1
 O         0.351373        -0.285873         0.492486
 C        -0.801719         0.402114         0.860493
 C        -1.988694         0.889764         0.093462
 C        -2.384984         0.862819         1.626094
 C        -1.126971         1.571239         1.941082
 C        -3.866884         0.839728         1.991414
 O        -4.268345        -0.474083         1.332238
 C        -2.969890        -1.399423         1.363594
 C        -1.791213        -0.517425         1.761526
 H         0.991894         0.027973        -0.086404
 H        -1.951544         1.922699        -0.288911
 H        -2.436802         0.172795        -0.594835
 H        -1.031813         2.566010         1.634130
 H        -0.654380         1.407485         2.877728
 H        -4.058631         0.733661         3.090589
 H        -4.362956         1.737135         1.576889
 H        -3.080195        -2.047568         2.295339
 H        -2.790386        -1.987659         0.494456
 H        -1.461917        -0.874689         2.746540
