19
Iteration:  3227charge 0 multiplicity 1
 O         0.348548        -0.223524         0.592342
 C        -0.868845         0.318922         0.883836
 C        -2.020803         0.673610        -0.075064
 C        -2.486055         0.913020         1.420146
 C        -1.201577         1.672360         1.706772
 C        -3.851792         0.835167         1.969493
 O        -4.150259        -0.451825         1.571056
 C        -2.907739        -1.389451         1.526873
 C        -1.725587        -0.542374         1.815146
 H         0.908393         0.410551         0.318342
 H        -1.900467         1.597297        -0.674597
 H        -2.634572        -0.126290        -0.722864
 H        -1.018762         2.647645         1.238035
 H        -0.907772         1.527345         2.788859
 H        -3.865400         1.002749         3.062082
 H        -4.564017         1.504268         1.466794
 H        -2.866078        -2.182284         2.281150
 H        -2.929337        -1.677393         0.437009
 H        -1.314865        -0.392370         2.827613
