19
Iteration:  2969charge 0 multiplicity 1
 O         0.400761        -0.265182         0.485264
 C        -0.872639         0.260965         0.857720
 C        -1.989867         0.809272         0.042720
 C        -2.492922         1.026819         1.502530
 C        -1.012770         1.605168         1.801291
 C        -3.972911         0.735630         1.872261
 O        -4.220258        -0.568515         1.407441
 C        -2.814860        -1.374785         1.602868
 C        -1.855870        -0.332136         1.945554
 H         0.588845         0.045504        -0.517572
 H        -1.862625         1.710853        -0.621415
 H        -2.665205         0.001260        -0.528429
 H        -0.911217         2.535683         1.322716
 H        -0.667671         1.665284         2.874154
 H        -4.089847         0.873900         2.983083
 H        -4.782922         1.371110         1.401022
 H        -2.931623        -2.253823         2.311979
 H        -2.644834        -1.841902         0.612511
 H        -1.445910        -0.258003         2.979970
