19
Iteration:  4354
 O         0.427564        -0.324979         0.555503
 C        -0.835279         0.442166         0.867054
 C        -1.935569         0.814222        -0.107502
 C        -2.478131         0.927558         1.428553
 C        -1.208685         1.656891         1.886179
 C        -3.928439         0.804048         1.683396
 O        -4.137693        -0.607173         1.903838
 C        -2.975389        -1.382578         1.457598
 C        -1.791844        -0.396189         1.710361
 H         0.850188         0.143530        -0.142986
 H        -1.754556         1.772079        -0.665807
 H        -2.356307         0.054506        -0.736049
 H        -0.738105         2.612232         1.804237
 H        -0.970023         1.252341         2.825450
 H        -4.249444         1.360455         2.655354
 H        -4.653188         1.173743         0.996476
 H        -2.872464        -2.169303         2.148217
 H        -3.217368        -1.786594         0.498910
 H        -1.501693        -0.611196         2.772794
