19
Iteration:  4474charge 0 multiplicity 1
 O         0.289321        -0.237396         0.307071
 C        -0.787211         0.384684         0.856983
 C        -1.942158         0.855177         0.062152
 C        -2.526151         0.961292         1.498697
 C        -0.952038         1.630177         1.887604
 C        -4.051556         0.788057         1.717950
 O        -4.189295        -0.691311         1.522183
 C        -2.929123        -1.348234         1.708480
 C        -1.783111        -0.322982         1.871855
 H         0.705254        -1.110214         0.846749
 H        -1.657887         1.668959        -0.656574
 H        -2.270487        -0.020353        -0.432017
 H        -0.666086         2.568403         1.410638
 H        -0.570473         1.621386         2.881358
 H        -4.316702         1.033778         2.768599
 H        -4.767870         1.149493         1.035699
 H        -2.812593        -2.120797         2.518526
 H        -2.700125        -1.783877         0.732475
 H        -1.561095        -0.237418         2.972640
