19
Iteration:  3881charge 0 multiplicity 1
 O         0.401053        -0.157920         0.286638
 C        -0.801876         0.296479         0.882598
 C        -2.108933         0.769600         0.071339
 C        -2.452817         0.951009         1.550535
 C        -1.038421         1.622420         1.758747
 C        -3.977020         0.814504         1.792258
 O        -4.164670        -0.608616         1.455391
 C        -2.921448        -1.364445         1.704600
 C        -1.797005        -0.404730         1.943256
 H         0.935786        -0.667338         1.066975
 H        -1.869490         1.717549        -0.505282
 H        -2.683837         0.054468        -0.463863
 H        -0.859795         2.579791         1.257153
 H        -0.815935         1.674919         2.812335
 H        -4.307341         0.972731         2.845987
 H        -4.471639         1.375931         0.994527
 H        -3.144117        -2.097684         2.556034
 H        -2.699052        -1.782450         0.739942
 H        -1.363634        -0.494856         2.971855
