19
Iteration:    77charge 0 multiplicity 1
 O         0.402683        -0.173840         0.452542
 C        -0.802863         0.295965         0.973646
 C        -1.872973         0.798249        -0.029418
 C        -2.466280         1.015875         1.350934
 C        -1.124380         1.583739         1.918175
 C        -3.893714         0.870636         1.766851
 O        -4.180653        -0.599018         1.811224
 C        -3.073109        -1.398166         1.393705
 C        -1.841656        -0.509596         1.703514
 H         1.114429        -0.040229         1.083513
 H        -1.721662         1.645273        -0.635162
 H        -2.416639         0.058142        -0.585898
 H        -0.786869         2.577716         1.551887
 H        -0.923102         1.350795         2.970591
 H        -4.021753         1.273238         2.712619
 H        -4.653622         1.315192         1.144000
 H        -3.072450        -2.231481         2.063640
 H        -3.193311        -1.667467         0.361620
 H        -1.644879        -0.512503         2.785727
