19
Iteration:   462
 O         0.507061        -0.174519         0.679949
 C        -0.775954         0.270718         0.884739
 C        -1.876495         0.944584        -0.046880
 C        -2.424231         0.853451         1.435071
 C        -1.132430         1.537320         1.882899
 C        -3.850174         0.834105         1.889809
 O        -4.252586        -0.542477         1.795480
 C        -3.144481        -1.366394         1.275627
 C        -1.915980        -0.536787         1.596719
 H         0.837970         0.458103        -0.088690
 H        -1.605718         1.867654        -0.509409
 H        -2.291662         0.168700        -0.701702
 H        -1.095641         2.491836         1.426406
 H        -0.685954         1.595973         2.949369
 H        -3.890639         1.085554         2.903727
 H        -4.509962         1.474573         1.360156
 H        -3.021577        -2.339377         1.820156
 H        -3.333311        -1.610077         0.189188
 H        -1.704877        -0.884575         2.643227
