19
Iteration:   240
 O         0.264128        -0.260172         0.400087
 C        -0.892891         0.335620         0.938967
 C        -1.930003         0.810281         0.031612
 C        -2.415440         0.918888         1.553330
 C        -1.077830         1.664281         1.928132
 C        -3.889629         0.815411         1.791708
 O        -4.178718        -0.533173         1.515000
 C        -2.968679        -1.421581         1.472208
 C        -1.758672        -0.465702         1.818863
 H         1.049131         0.252948         0.711864
 H        -1.767718         1.722369        -0.520211
 H        -2.344143         0.049779        -0.632014
 H        -0.792938         2.715980         1.565334
 H        -0.769335         1.354703         2.898558
 H        -4.301235         1.132869         2.805692
 H        -4.399898         1.451333         1.060828
 H        -3.050223        -2.053322         2.309454
 H        -3.016972        -1.898024         0.481191
 H        -1.447970        -0.640661         2.855983
