19
Iteration:  2010
 O         0.367477        -0.099360         0.399408
 C        -0.845070         0.335256         0.911461
 C        -1.967321         0.891146         0.037054
 C        -2.445386         0.863813         1.556686
 C        -1.116793         1.496289         1.997050
 C        -3.846269         0.871074         1.913683
 O        -4.164401        -0.457339         1.419364
 C        -3.040250        -1.414543         1.430840
 C        -1.813127        -0.571328         1.768616
 H         0.767161        -0.938325         0.762467
 H        -1.768384         1.827092        -0.465473
 H        -2.351056         0.162870        -0.741475
 H        -0.875588         2.457269         1.634581
 H        -0.850270         1.341218         3.099794
 H        -3.823572         0.839682         3.023841
 H        -4.498610         1.654092         1.537754
 H        -3.387798        -2.253806         2.082831
 H        -2.787158        -1.786230         0.348382
 H        -1.452750        -0.761936         2.822737
