19
Iteration:  3793charge 0 multiplicity 1
 O         0.471163        -0.101931         0.589940
 C        -0.839719         0.295760         0.885052
 C        -1.916290         0.754431        -0.030929
 C        -2.507481         0.892108         1.473630
 C        -0.971725         1.598529         1.679638
 C        -4.029590         0.836661         1.878598
 O        -4.220824        -0.608882         1.815324
 C        -3.002221        -1.357801         1.395184
 C        -1.849505        -0.438798         1.761006
 H         0.629909        -0.009581        -0.337547
 H        -1.619352         1.686425        -0.566304
 H        -2.300746        -0.091841        -0.597148
 H        -0.981560         2.585797         1.180554
 H        -0.554495         1.458803         2.654817
 H        -4.171103         1.175336         2.952178
 H        -4.721532         1.367158         1.172810
 H        -3.036402        -2.277939         2.036774
 H        -3.019867        -1.602865         0.354679
 H        -1.498891        -0.604103         2.775469
