19
Iteration:   892
 O         0.460533        -0.079472         0.371838
 C        -0.794388         0.260181         0.919031
 C        -1.975579         0.920121         0.114759
 C        -2.406129         0.841284         1.596247
 C        -1.152510         1.461095         1.948712
 C        -3.825786         0.867150         1.915877
 O        -4.257326        -0.440774         1.384051
 C        -3.041580        -1.435445         1.395587
 C        -1.854580        -0.536510         1.791361
 H         0.734244        -0.781326         1.124388
 H        -1.738982         1.923907        -0.180954
 H        -2.606232         0.288700        -0.589600
 H        -0.829598         2.481164         1.514392
 H        -0.702901         1.305273         2.910991
 H        -4.000706         0.920221         3.016861
 H        -4.406869         1.673237         1.355693
 H        -3.237728        -2.380292         1.991116
 H        -3.066171        -1.705521         0.331166
 H        -1.457162        -0.643997         2.840889
