19
Iteration:  4415charge 0 multiplicity 1
 O         0.494565        -0.103250         0.506361
 C        -0.804298         0.359101         0.889797
 C        -2.101932         0.557066         0.004330
 C        -2.427977         0.894982         1.547545
 C        -1.145774         1.632417         1.668807
 C        -3.876940         0.803946         2.007834
 O        -4.247247        -0.438748         1.449389
 C        -3.017082        -1.380361         1.529974
 C        -1.767513        -0.463855         1.803582
 H         1.040448         0.387704         1.004981
 H        -2.120769         1.307712        -0.774697
 H        -2.396766        -0.437946        -0.482354
 H        -0.805154         2.500055         1.020533
 H        -0.786407         1.498396         2.758221
 H        -3.932716         0.925881         3.082235
 H        -4.528221         1.573688         1.475129
 H        -3.002376        -2.157874         2.402701
 H        -3.050339        -2.013090         0.584123
 H        -1.346039        -0.460770         2.808775
