19
Iteration:  1463
 O         0.346232        -0.138835         0.398148
 C        -0.853375         0.313887         0.922456
 C        -2.002440         0.989268         0.166349
 C        -2.391690         0.895841         1.675978
 C        -0.919410         1.463515         1.961321
 C        -3.934822         0.789272         1.928175
 O        -4.209406        -0.477870         1.192651
 C        -2.965877        -1.406228         1.404568
 C        -1.898885        -0.496327         1.895238
 H         0.289881        -1.037077         0.223799
 H        -1.855316         1.960986        -0.274229
 H        -2.581567         0.327250        -0.498296
 H        -0.572491         2.453616         1.407229
 H        -0.341119         1.261283         2.922934
 H        -4.144417         0.721024         2.982707
 H        -4.637002         1.452098         1.424613
 H        -3.221480        -2.196367         2.177395
 H        -2.669867        -1.756066         0.434885
 H        -1.526614        -0.616070         2.887165
