19
Iteration:  3666charge 0 multiplicity 1
 O         0.493411        -0.192815         0.468543
 C        -0.760718         0.299020         0.907361
 C        -2.001125         0.786808        -0.014173
 C        -2.467984         0.981519         1.374081
 C        -1.189852         1.570600         1.812032
 C        -3.809680         0.829381         1.942514
 O        -4.218978        -0.553063         1.666921
 C        -3.024771        -1.431361         1.462688
 C        -1.891660        -0.472737         1.788567
 H         1.157091         0.555801         0.518407
 H        -1.910717         1.769902        -0.580654
 H        -2.313046         0.081808        -0.678149
 H        -0.988621         2.537897         1.335533
 H        -1.042058         1.682847         2.871263
 H        -3.771395         1.066963         3.005467
 H        -4.566284         1.455605         1.477081
 H        -3.002722        -2.366345         1.971596
 H        -3.087603        -1.656699         0.376195
 H        -1.782463        -0.673544         2.860854
