19
Iteration:  2066
 O         0.256481        -0.244055         0.374128
 C        -0.829035         0.288690         0.955489
 C        -1.956735         0.947118         0.155245
 C        -2.458721         0.935555         1.636515
 C        -0.980333         1.518506         1.898436
 C        -3.905946         0.743626         1.941187
 O        -4.155026        -0.544134         1.325393
 C        -2.961220        -1.332694         1.337646
 C        -1.877301        -0.430019         1.836550
 H         1.009940        -0.138594         0.832024
 H        -1.391591         1.808015        -0.271037
 H        -2.601822         0.527159        -0.608411
 H        -0.931722         2.525727         1.570915
 H        -0.616858         1.317066         2.983993
 H        -4.091444         0.781315         3.047414
 H        -4.499802         1.522598         1.429211
 H        -3.265587        -2.119596         2.105337
 H        -2.796495        -1.783224         0.261301
 H        -1.479885        -0.596223         2.911686
