19
Iteration:  2255charge 0 multiplicity 1
 O         0.509570        -0.019684         0.414428
 C        -0.793180         0.265215         0.964533
 C        -1.841771         0.868555         0.057591
 C        -2.474064         0.895160         1.436099
 C        -1.081552         1.466331         1.943785
 C        -3.858117         0.876338         1.932731
 O        -4.241709        -0.538261         1.662003
 C        -3.141434        -1.373763         1.233154
 C        -1.923413        -0.587072         1.736209
 H         0.940320        -0.479243         1.051638
 H        -1.559926         1.807831        -0.334536
 H        -2.349600         0.206536        -0.654066
 H        -0.930735         2.480605         1.471318
 H        -0.947364         1.359696         2.933149
 H        -3.807586         0.936374         3.019434
 H        -4.591273         1.660624         1.662653
 H        -3.342556        -2.409409         1.612576
 H        -3.307102        -1.482946         0.143920
 H        -1.692077        -0.792165         2.818775
