19
Iteration:  1415charge 0 multiplicity 1
 O         0.381096        -0.205021         0.422811
 C        -0.782526         0.379688         0.918305
 C        -2.013638         0.882541         0.003633
 C        -2.431507         0.872071         1.566045
 C        -1.091372         1.476314         2.090263
 C        -3.788005         0.858256         2.008450
 O        -4.251747        -0.501039         1.413977
 C        -3.064184        -1.334001         1.251613
 C        -1.783085        -0.521983         1.704155
 H         1.049670        -0.509307         1.247923
 H        -1.839571         1.900523        -0.473314
 H        -2.469735         0.130717        -0.675146
 H        -1.011480         2.585113         1.990523
 H        -0.960680         1.157502         3.108543
 H        -4.027517         0.761626         3.053633
 H        -4.340000         1.646737         1.520129
 H        -3.135306        -2.103736         1.963508
 H        -3.079417        -1.668343         0.169696
 H        -1.472420        -0.670345         2.782960
