19
Iteration:   915
 O         0.419636        -0.104155         0.384403
 C        -0.764786         0.304933         1.011321
 C        -1.860982         0.808794        -0.010141
 C        -2.431373         0.945791         1.515364
 C        -1.000121         1.488440         1.995567
 C        -3.967765         0.764765         2.006129
 O        -4.265409        -0.504346         1.464087
 C        -3.121771        -1.308299         1.297154
 C        -1.892978        -0.481649         1.737479
 H         1.006965        -0.165506         1.068234
 H        -1.604341         1.742330        -0.536499
 H        -2.229604        -0.048827        -0.596028
 H        -0.443028         2.460422         1.658763
 H        -0.736763         1.254779         2.987438
 H        -3.856234         0.720330         3.126426
 H        -4.768163         1.541326         1.681860
 H        -3.203894        -2.254411         1.969374
 H        -3.260720        -1.691114         0.240622
 H        -1.567224        -0.803683         2.778481
