19
Iteration:   866charge 0 multiplicity 1
 O         0.372882        -0.106045         0.382214
 C        -0.806328         0.314964         0.944891
 C        -1.996145         0.883908         0.145363
 C        -2.385536         0.980169         1.683956
 C        -0.961982         1.475427         1.967359
 C        -3.933107         0.815541         1.878824
 O        -4.246192        -0.517050         1.330080
 C        -3.015387        -1.387484         1.388759
 C        -1.830920        -0.494430         1.726873
 H         0.318968        -1.080647         0.870725
 H        -1.737098         1.839942        -0.339579
 H        -2.513613         0.084885        -0.356079
 H        -0.803796         2.487108         1.702963
 H        -0.438233         1.235419         2.991669
 H        -4.302537         0.849737         2.867988
 H        -4.473523         1.447949         1.246919
 H        -3.090234        -2.050463         2.225958
 H        -3.083461        -1.896487         0.440534
 H        -1.417575        -0.708492         2.706983
