19
Iteration:  3006
 O         0.341228        -0.214063         0.501141
 C        -0.815203         0.333476         0.819389
 C        -2.039211         0.720913         0.010458
 C        -2.418807         0.906105         1.498136
 C        -1.145003         1.612803         1.839586
 C        -3.858068         0.765779         1.849408
 O        -4.213179        -0.512787         1.469572
 C        -2.915234        -1.363086         1.625610
 C        -1.772142        -0.429927         1.791060
 H         1.204497         0.449854         0.514894
 H        -2.046777         1.647386        -0.641657
 H        -2.512137        -0.041458        -0.471767
 H        -1.165591         2.594882         1.166096
 H        -0.780011         1.754080         2.850022
 H        -3.927745         0.833033         2.968390
 H        -4.449787         1.549920         1.433890
 H        -3.114684        -1.978059         2.486307
 H        -2.914350        -2.036838         0.703471
 H        -1.447831        -0.416039         2.849635
