19
Iteration:  3161
 O         0.378380        -0.204287         0.499148
 C        -0.789006         0.334399         0.908145
 C        -1.901112         0.678718        -0.054986
 C        -2.460191         0.891232         1.368385
 C        -1.256719         1.586668         1.864685
 C        -3.908536         0.910340         1.734482
 O        -4.133748        -0.550613         1.895396
 C        -2.968824        -1.322488         1.467146
 C        -1.767284        -0.480348         1.718960
 H         0.909555         0.492542        -0.055759
 H        -1.746894         1.672265        -0.517994
 H        -2.247028        -0.197412        -0.729482
 H        -1.208610         2.699863         1.671816
 H        -1.114847         1.324465         2.966799
 H        -4.163806         1.333112         2.697868
 H        -4.486506         1.337049         0.915385
 H        -3.059115        -2.222223         2.107424
 H        -3.206594        -1.573753         0.365720
 H        -1.632447        -0.689001         2.796027
