19
Iteration:  3619
 O         0.404077        -0.248572         0.479374
 C        -0.828014         0.302558         0.856686
 C        -2.119434         0.818230         0.112915
 C        -2.482830         0.917528         1.571520
 C        -1.054160         1.634907         1.815757
 C        -3.883726         0.813299         1.900912
 O        -4.120977        -0.551616         1.333447
 C        -2.965965        -1.401241         1.555135
 C        -1.784036        -0.385117         1.863903
 H         0.599052        -0.033609        -0.547960
 H        -2.054445         1.693383        -0.506699
 H        -2.797426         0.059390        -0.376248
 H        -0.872645         2.671422         1.396570
 H        -0.616273         1.594670         2.833175
 H        -4.041066         0.878939         2.993797
 H        -4.549109         1.509870         1.413605
 H        -3.016915        -1.978751         2.538337
 H        -2.901357        -2.187745         0.773534
 H        -1.524414        -0.522968         2.949702
