19
Iteration:  2877
 O         0.487479        -0.049077         0.493371
 C        -0.800582         0.242613         0.898848
 C        -1.880662         0.771825        -0.058398
 C        -2.438162         0.912663         1.383485
 C        -1.158888         1.513080         1.797262
 C        -3.849163         0.863301         1.918205
 O        -4.246228        -0.596035         1.764221
 C        -3.116265        -1.371187         1.406661
 C        -1.841217        -0.462304         1.721402
 H         0.898762         0.076063         1.307019
 H        -1.686400         1.712464        -0.659002
 H        -2.379637         0.026128        -0.643483
 H        -0.934641         2.550992         1.397331
 H        -1.058632         1.497667         2.835681
 H        -3.917424         1.282183         2.946501
 H        -4.552552         1.386606         1.270185
 H        -3.093276        -2.300227         2.049233
 H        -3.190249        -1.777771         0.392517
 H        -1.592167        -0.488317         2.773016
