19
Iteration:  2867charge 0 multiplicity 1
 O         0.496479        -0.108923         0.507079
 C        -0.782939         0.332541         0.882943
 C        -1.883071         0.827214        -0.049142
 C        -2.519153         0.871416         1.363069
 C        -1.161427         1.555703         1.796676
 C        -3.881538         0.828381         1.855459
 O        -4.205711        -0.532904         1.792558
 C        -3.061649        -1.393252         1.440199
 C        -1.910588        -0.558132         1.789080
 H         1.160281         0.166235         1.028322
 H        -1.692235         1.785191        -0.637690
 H        -2.273403         0.040795        -0.733347
 H        -0.919491         2.515570         1.275717
 H        -0.843006         1.481662         2.794510
 H        -3.918129         1.171426         2.924489
 H        -4.643701         1.394047         1.282993
 H        -3.275061        -2.423835         1.867174
 H        -3.070070        -1.386632         0.345918
 H        -1.441986        -0.757885         2.724610
