19
Iteration:  3509charge 0 multiplicity 1
 O         0.553458        -0.136936         0.480822
 C        -0.789187         0.298240         0.911916
 C        -1.864332         0.664128        -0.101923
 C        -2.529054         1.057032         1.366768
 C        -1.155832         1.592312         1.776934
 C        -3.910500         0.818692         2.054595
 O        -4.218277        -0.570594         1.760239
 C        -3.071078        -1.398816         1.370259
 C        -1.930309        -0.481249         1.754179
 H         1.220287         0.665913         0.619903
 H        -1.683735         1.416385        -0.805442
 H        -2.380025        -0.090609        -0.805387
 H        -0.821251         2.596299         1.475119
 H        -0.959676         1.599517         2.891476
 H        -3.664542         1.076740         3.090586
 H        -4.648238         1.505858         1.649263
 H        -3.343073        -2.366787         1.866107
 H        -3.058298        -1.680952         0.301540
 H        -1.688295        -0.723238         2.870562
