19
Iteration:  3972
 O         0.493745        -0.134137         0.695682
 C        -0.807848         0.403369         0.843599
 C        -2.086329         0.668288        -0.106229
 C        -2.464236         0.919597         1.317882
 C        -1.174447         1.645427         1.701243
 C        -3.791216         0.818176         1.844957
 O        -4.135457        -0.553181         1.812063
 C        -3.027742        -1.412641         1.469336
 C        -1.906317        -0.465792         1.794266
 H         0.643085        -0.071234        -0.339701
 H        -1.894469         1.528778        -0.650944
 H        -2.332349        -0.188311        -0.775529
 H        -1.075488         2.679692         1.386696
 H        -0.908015         1.522614         2.772898
 H        -3.580170         0.946447         2.937089
 H        -4.581446         1.432788         1.438779
 H        -2.951955        -2.208402         2.186609
 H        -3.152333        -1.719450         0.441715
 H        -1.467059        -0.555465         2.712575
