19
Iteration:   984charge 0 multiplicity 1
 O         0.426270        -0.203131         0.502276
 C        -0.809614         0.302314         0.944472
 C        -1.924030         0.889287         0.017068
 C        -2.460615         0.947226         1.509520
 C        -0.934421         1.478358         2.035319
 C        -3.904244         0.827175         1.840007
 O        -4.268688        -0.609981         1.693588
 C        -3.137083        -1.327096         1.199773
 C        -1.891406        -0.451766         1.663679
 H         1.323408         0.413992         0.526084
 H        -1.797970         1.978515        -0.290599
 H        -2.496046         0.243196        -0.648257
 H        -0.422357         2.395409         1.754126
 H        -0.687514         1.267707         3.126858
 H        -4.168969         1.129158         2.963434
 H        -4.469363         1.415499         1.061949
 H        -2.923622        -2.304903         1.688409
 H        -3.107886        -1.564566         0.030300
 H        -1.708122        -0.671188         2.740002
