19
Iteration:   535
 O         0.314239        -0.155986         0.444202
 C        -0.854324         0.310225         0.955060
 C        -1.984848         0.895091         0.135299
 C        -2.414957         0.978996         1.630613
 C        -0.987195         1.564019         1.960466
 C        -3.847293         0.838733         1.856639
 O        -4.212823        -0.521414         1.402495
 C        -3.021068        -1.443323         1.336071
 C        -1.796949        -0.529907         1.732694
 H         0.718219        -0.921897         0.936460
 H        -1.890996         1.842331        -0.414548
 H        -2.649843         0.149682        -0.441396
 H        -0.834095         2.525573         1.395034
 H        -0.526708         1.718978         2.900381
 H        -4.217422         0.948860         2.954607
 H        -4.521761         1.510018         1.254104
 H        -3.131663        -2.170499         2.104903
 H        -2.884200        -1.969945         0.396028
 H        -1.472816        -0.868863         2.678459
