19
Iteration:  4842
 O         0.471885        -0.051772         0.515380
 C        -0.755851         0.271015         0.918187
 C        -1.997582         0.764804        -0.064438
 C        -2.499957         0.915863         1.426152
 C        -1.021180         1.518888         1.761807
 C        -3.945789         0.801768         1.936787
 O        -4.247940        -0.575266         1.602711
 C        -2.997950        -1.301979         1.474248
 C        -1.844586        -0.402728         1.824117
 H         0.592554        -1.113293         0.663747
 H        -1.731648         1.664340        -0.717514
 H        -2.567740         0.034225        -0.676524
 H        -0.733648         2.529848         1.450599
 H        -0.833485         1.365371         2.841863
 H        -4.160200         0.817739         3.010601
 H        -4.657102         1.502371         1.409827
 H        -3.131314        -2.187362         2.139556
 H        -2.871886        -1.611170         0.404873
 H        -1.399722        -0.486676         2.861159
