19
Iteration:  1925charge 0 multiplicity 1
 O         0.393508        -0.245672         0.448981
 C        -0.768398         0.371163         0.926358
 C        -1.837521         0.922187         0.053148
 C        -2.466886         0.977701         1.544494
 C        -1.110788         1.542790         1.943546
 C        -3.964039         0.832756         1.806097
 O        -4.226658        -0.588784         1.794426
 C        -3.067272        -1.342558         1.187456
 C        -1.813975        -0.596749         1.706027
 H         1.201383         0.229854         0.755063
 H        -1.686346         1.938743        -0.387106
 H        -2.246543         0.308113        -0.798863
 H        -0.659793         2.477964         1.735865
 H        -0.725848         1.182509         2.997511
 H        -4.302027         1.119072         2.812056
 H        -4.634803         1.296676         1.044872
 H        -3.286794        -2.369226         1.597752
 H        -3.027209        -1.318153         0.144797
 H        -1.625274        -0.721938         2.804679
