19
Iteration:  4656
 O         0.381635        -0.407405         0.420250
 C        -0.768382         0.359855         0.830499
 C        -2.015399         0.871288         0.033951
 C        -2.457106         1.004727         1.473827
 C        -1.236167         1.696917         1.921340
 C        -3.863369         0.805312         1.744639
 O        -4.139075        -0.613978         1.719850
 C        -2.884209        -1.357484         1.464867
 C        -1.835511        -0.354702         1.734694
 H         0.649001        -0.897959         1.255907
 H        -1.953164         1.823474        -0.551497
 H        -2.411917         0.074541        -0.526050
 H        -1.003768         2.696990         1.449417
 H        -1.124820         1.658463         3.026074
 H        -4.285744         1.058390         2.762556
 H        -4.668286         1.334493         1.049442
 H        -2.700213        -2.082653         2.264263
 H        -2.877985        -1.700687         0.436053
 H        -1.445576        -0.650994         2.743075
