19
Iteration:   810
 O         0.430281        -0.181046         0.518412
 C        -0.851891         0.263866         0.887766
 C        -1.983999         0.877491         0.017114
 C        -2.340270         0.938633         1.567601
 C        -1.023312         1.577330         1.997441
 C        -3.947592         0.823804         2.032386
 O        -4.268958        -0.511201         1.423909
 C        -3.009422        -1.322113         1.274508
 C        -1.786750        -0.497018         1.700635
 H         0.400343        -1.160552         0.750287
 H        -2.050126         1.886725        -0.510758
 H        -2.360029         0.188046        -0.694228
 H        -0.942821         2.603429         1.626346
 H        -0.793587         1.460333         3.121866
 H        -4.054377         0.816158         3.083367
 H        -4.669848         1.508530         1.655490
 H        -3.055879        -2.180440         1.924451
 H        -3.006402        -1.747140         0.258827
 H        -1.393323        -0.949017         2.572345
