19
Iteration:  2623charge 0 multiplicity 1
 O         0.398482        -0.156135         0.408402
 C        -0.873053         0.332537         0.958490
 C        -1.992053         0.868451         0.042221
 C        -2.404293         0.886843         1.507300
 C        -1.074604         1.539412         1.871539
 C        -3.861325         0.791530         1.901747
 O        -4.183324        -0.523992         1.467963
 C        -3.046352        -1.355141         1.433137
 C        -1.866093        -0.519280         1.831519
 H         0.972087         0.268996         0.965747
 H        -1.482749         1.719570        -0.572273
 H        -2.532073         0.044144        -0.601362
 H        -0.716880         2.460202         1.437929
 H        -0.870042         1.446262         3.025823
 H        -3.835058         0.859184         3.026259
 H        -4.566057         1.559320         1.568463
 H        -3.232098        -2.315795         1.901567
 H        -2.875624        -1.811048         0.384000
 H        -1.562282        -0.595340         2.882532
