19
Iteration:  1875charge 0 multiplicity 1
 O         0.394546        -0.227912         0.582615
 C        -0.808909         0.314932         0.878518
 C        -1.884871         0.981155        -0.008524
 C        -2.456521         0.887240         1.516318
 C        -1.084879         1.468352         2.029811
 C        -3.888465         0.873344         1.827792
 O        -4.211196        -0.558193         1.788743
 C        -3.000892        -1.366623         1.204804
 C        -1.858192        -0.571874         1.646740
 H         0.719357         0.335598        -0.228599
 H        -1.712142         2.008359        -0.360551
 H        -2.395663         0.490981        -0.779957
 H        -0.975182         2.532257         1.629985
 H        -0.931161         1.438615         3.034641
 H        -4.192456         1.388517         2.752450
 H        -4.448256         1.266273         1.001023
 H        -2.979168        -2.310594         1.732875
 H        -3.323014        -1.468259         0.108243
 H        -1.567393        -0.866575         2.639484
