19
Iteration:  1781
 O         0.395674        -0.288048         0.423230
 C        -0.773412         0.351177         0.925096
 C        -1.963573         0.862607         0.118366
 C        -2.432710         0.993128         1.616343
 C        -1.092517         1.533670         1.966779
 C        -3.903309         0.790424         1.936274
 O        -4.203954        -0.522379         1.396038
 C        -3.020141        -1.330426         1.354540
 C        -1.809361        -0.515401         1.763781
 H         0.825222         0.237054        -0.261860
 H        -1.881081         1.890044        -0.274064
 H        -2.537770         0.285983        -0.679339
 H        -0.963038         2.570776         1.661277
 H        -0.853708         1.465291         3.076832
 H        -4.115538         0.879512         3.034449
 H        -4.653592         1.404008         1.355402
 H        -3.218105        -2.038499         2.235232
 H        -2.990667        -1.819343         0.409244
 H        -1.403185        -0.849147         2.756430
