19
Iteration:  2128charge 0 multiplicity 1
 O         0.478680         0.058895         0.480600
 C        -0.798334         0.231828         0.953415
 C        -1.914086         0.873909        -0.051626
 C        -2.389077         0.861146         1.554777
 C        -0.945260         1.436188         1.848500
 C        -3.960977         0.806417         2.008479
 O        -4.296567        -0.470953         1.606002
 C        -3.138240        -1.406231         1.276548
 C        -1.908881        -0.591960         1.727100
 H         1.039427        -0.223011         1.180571
 H        -1.367439         1.701675        -0.445167
 H        -2.306074         0.184947        -0.895965
 H        -0.569838         2.392818         1.480601
 H        -0.810950         1.408787         2.948145
 H        -4.079032         0.965552         3.087711
 H        -4.524855         1.512576         1.413835
 H        -3.482249        -2.273315         1.732817
 H        -3.176059        -1.442813         0.181287
 H        -1.648937        -0.878166         2.723593
