19
Iteration:   355charge 0 multiplicity 1
 O         0.448760        -0.030341         0.587782
 C        -0.820556         0.307969         0.905586
 C        -1.960707         0.806304        -0.070179
 C        -2.407971         0.920858         1.450849
 C        -0.956267         1.491399         1.902551
 C        -3.881746         0.846695         1.842955
 O        -4.232861        -0.545969         1.607690
 C        -3.083572        -1.404926         1.396615
 C        -1.895432        -0.529102         1.810302
 H         0.331113        -0.446349        -0.191083
 H        -1.885618         1.670168        -0.699363
 H        -2.590769         0.218347        -0.639129
 H        -0.672750         2.388434         1.422861
 H        -0.509685         1.427962         2.965860
 H        -3.955631         1.057096         3.002182
 H        -4.745439         1.432756         1.377505
 H        -3.104122        -2.279671         2.102482
 H        -3.208456        -1.677794         0.374409
 H        -1.700092        -0.550340         2.899126
