19
Iteration:  3495charge 0 multiplicity 1
 O         0.510395        -0.080172         0.480789
 C        -0.802872         0.262050         0.899328
 C        -1.838528         0.717954        -0.131346
 C        -2.501228         0.864923         1.341041
 C        -1.136930         1.495259         1.755761
 C        -3.852265         0.851557         1.987332
 O        -4.273773        -0.581898         1.833298
 C        -3.057343        -1.319188         1.343333
 C        -1.957672        -0.400248         1.832263
 H         1.116214         0.594977         0.902112
 H        -1.592996         1.627706        -0.622551
 H        -2.173354        -0.103267        -0.712904
 H        -0.854443         2.423221         1.237030
 H        -0.864162         1.401077         2.824199
 H        -3.822531         0.971841         3.053973
 H        -4.789304         1.347217         1.656532
 H        -2.886971        -2.366348         1.747441
 H        -3.108623        -1.322275         0.264951
 H        -1.718983        -0.366790         2.895165
