19
Iteration:  2722charge 0 multiplicity 1
 O         0.480231        -0.145820         0.494398
 C        -0.788633         0.327663         0.922494
 C        -1.951798         0.813898         0.054564
 C        -2.466254         0.887838         1.474350
 C        -1.112197         1.533654         1.808410
 C        -3.892972         0.843555         1.973872
 O        -4.252749        -0.530518         1.532881
 C        -3.047112        -1.425485         1.356687
 C        -1.868450        -0.453963         1.776716
 H         1.210835         0.424098         0.567110
 H        -1.871508         1.676529        -0.693008
 H        -2.396540        -0.104528        -0.442523
 H        -0.910539         2.608333         1.441338
 H        -0.586605         1.567544         2.866459
 H        -3.904980         0.887658         3.103864
 H        -4.591054         1.568258         1.517785
 H        -3.113792        -2.103982         2.227216
 H        -3.088353        -2.059089         0.385017
 H        -1.528971        -0.684602         2.781193
