19
Iteration:  2587
 O         0.569430        -0.121386         0.605598
 C        -0.720394         0.361245         0.896250
 C        -1.994057         0.818923        -0.006412
 C        -2.474112         0.882049         1.478940
 C        -1.061264         1.493148         1.868158
 C        -3.901367         0.814390         1.975025
 O        -4.259004        -0.539808         1.605179
 C        -3.149755        -1.332296         1.386937
 C        -1.867382        -0.532173         1.619760
 H         0.845945         0.164368        -0.214930
 H        -1.641010         1.656097        -0.660892
 H        -2.480042         0.100700        -0.679493
 H        -0.936019         2.591583         1.544388
 H        -0.766019         1.334037         3.007681
 H        -3.979658         0.846304         3.096347
 H        -4.701040         1.394080         1.503611
 H        -3.165076        -2.225203         2.018664
 H        -3.182021        -1.454843         0.284929
 H        -1.605630        -0.606632         2.710207
