19
Iteration:   289charge 0 multiplicity 1
 O         0.314588        -0.258467         0.530702
 C        -0.878036         0.274435         0.926525
 C        -1.970559         0.840602        -0.011999
 C        -2.446657         1.016716         1.499388
 C        -1.004874         1.530686         1.858377
 C        -3.926188         0.830924         1.914308
 O        -4.191768        -0.567184         1.428952
 C        -2.920032        -1.373821         1.469381
 C        -1.839530        -0.418293         1.850493
 H         0.892824         0.435920        -0.024229
 H        -1.655559         1.762124        -0.524822
 H        -2.594189         0.255615        -0.663518
 H        -0.823622         2.449237         1.359640
 H        -0.631099         1.476366         2.933505
 H        -4.003953         0.887673         3.071787
 H        -4.740099         1.461048         1.450777
 H        -3.046794        -2.228154         2.222999
 H        -2.747546        -1.813588         0.476558
 H        -1.456744        -0.610406         2.864314
