19
Iteration:  2763
 O         0.493384        -0.037782         0.483653
 C        -0.791189         0.349208         0.931517
 C        -1.914714         0.759871        -0.014248
 C        -2.489094         0.954639         1.496836
 C        -1.085246         1.461045         1.820021
 C        -3.872921         0.871977         1.864193
 O        -4.265963        -0.598030         1.714433
 C        -3.013711        -1.364693         1.329691
 C        -1.898760        -0.467268         1.756770
 H         0.729653        -0.960315         0.937886
 H        -1.920580         1.687541        -0.506134
 H        -2.346915        -0.018920        -0.693378
 H        -0.864073         2.409423         1.378429
 H        -0.654502         1.621649         2.880986
 H        -3.983096         1.150004         2.920595
 H        -4.636310         1.404430         1.303827
 H        -3.025649        -2.303315         1.860414
 H        -3.098301        -1.704777         0.267831
 H        -1.716935        -0.597071         2.865168
