19
Iteration:  2498
 O         0.361364        -0.240463         0.497516
 C        -0.866224         0.306315         0.934924
 C        -1.878615         1.028428         0.009014
 C        -2.457364         1.001086         1.487907
 C        -1.050365         1.498023         1.956791
 C        -3.964494         0.775479         1.747892
 O        -4.148862        -0.610390         1.752941
 C        -3.030877        -1.379111         1.310371
 C        -1.876626        -0.537292         1.732652
 H         0.879910         0.481286         0.373691
 H        -1.364254         1.949996        -0.293943
 H        -2.347403         0.527800        -0.815915
 H        -0.476562         2.474349         1.531990
 H        -0.908340         1.304469         3.025126
 H        -4.053669         1.068894         2.810716
 H        -4.592699         1.398193         1.076330
 H        -3.107487        -2.387224         1.795968
 H        -3.077892        -1.376232         0.192180
 H        -1.529276        -0.866504         2.750486
