19
Iteration:  1160charge 0 multiplicity 1
 O         0.328177        -0.230412         0.334164
 C        -0.794021         0.345271         0.955041
 C        -1.919965         0.876493         0.180435
 C        -2.437811         0.931840         1.639421
 C        -0.950049         1.511727         2.018432
 C        -3.958465         0.815652         1.941386
 O        -4.243557        -0.472980         1.271579
 C        -3.026423        -1.375642         1.308671
 C        -1.828072        -0.503047         1.825729
 H         0.963992         0.239839         0.823884
 H        -1.774517         1.820304        -0.341974
 H        -2.501373         0.122706        -0.427556
 H        -0.668067         2.509912         1.758763
 H        -0.717868         1.110172         3.138675
 H        -4.250993         0.711071         2.977296
 H        -4.584813         1.541071         1.426663
 H        -3.292611        -2.110041         2.077010
 H        -2.919273        -1.763664         0.290037
 H        -1.301753        -0.867032         2.740730
