19
Iteration:  1873
 O         0.391185        -0.224222         0.584770
 C        -0.803727         0.318254         0.869959
 C        -1.871612         0.961328         0.004887
 C        -2.438922         0.877681         1.517498
 C        -1.103942         1.481304         2.027829
 C        -3.882597         0.873568         1.831473
 O        -4.224502        -0.561762         1.788266
 C        -3.005356        -1.338074         1.206430
 C        -1.853366        -0.583084         1.627850
 H         0.763410         0.310567        -0.282425
 H        -1.754098         2.046119        -0.348395
 H        -2.416016         0.442510        -0.779258
 H        -1.006044         2.496910         1.601268
 H        -0.886324         1.411427         3.116290
 H        -4.172872         1.370726         2.794149
 H        -4.502020         1.280564         0.994388
 H        -2.975680        -2.339916         1.749217
 H        -3.261562        -1.458239         0.102996
 H        -1.605827        -0.800453         2.668293
