19
Iteration:  4684charge 0 multiplicity 1
 O         0.394338        -0.187378         0.494288
 C        -0.842292         0.339407         0.843444
 C        -1.905020         0.856685        -0.062507
 C        -2.491971         0.980631         1.446372
 C        -1.048562         1.603772         1.729025
 C        -3.916802         0.774965         1.937792
 O        -4.200418        -0.596123         1.578548
 C        -2.974622        -1.396694         1.557387
 C        -1.868162        -0.389027         1.841484
 H         0.503788        -0.859667         1.118976
 H        -1.720652         1.847276        -0.530234
 H        -2.334190         0.100208        -0.816129
 H        -0.829894         2.509660         1.190042
 H        -0.784887         1.646758         2.784988
 H        -3.871027         0.733591         3.022187
 H        -4.760322         1.277614         1.597335
 H        -3.032019        -2.306614         2.189782
 H        -2.847829        -1.771090         0.482316
 H        -1.524838        -0.587073         2.874985
