19
Iteration:  4104charge 0 multiplicity 1
 O         0.539540        -0.059429         0.687060
 C        -0.800179         0.346137         0.816628
 C        -1.912598         0.623324        -0.170244
 C        -2.508616         0.897188         1.435982
 C        -1.132907         1.576583         1.613162
 C        -3.938809         0.806607         1.987770
 O        -4.257340        -0.576118         1.818577
 C        -3.034354        -1.344234         1.438615
 C        -1.837267        -0.398626         1.791680
 H         0.835262         0.031520        -0.328198
 H        -1.820933         1.445014        -0.849418
 H        -2.478789        -0.247788        -0.610416
 H        -0.958678         2.536593         1.104897
 H        -0.732190         1.474555         2.648996
 H        -3.833848         1.185679         3.083325
 H        -4.691426         1.405971         1.489124
 H        -3.136826        -2.300163         1.946163
 H        -2.899747        -1.573296         0.304082
 H        -1.488236        -0.584861         2.776691
