19
Iteration:   268
 O         0.424649        -0.373776         0.410431
 C        -0.818908         0.299550         0.915473
 C        -2.033431         0.977090         0.131158
 C        -2.491872         0.990201         1.547249
 C        -0.945883         1.562519         1.810327
 C        -4.028137         0.773440         1.799806
 O        -4.154098        -0.622068         1.470210
 C        -2.984606        -1.362389         1.520142
 C        -1.865306        -0.334293         1.872767
 H         1.180460         0.399921         0.357132
 H        -1.937965         2.080488        -0.334746
 H        -2.524497         0.288133        -0.535591
 H        -0.551857         2.457824         1.420234
 H        -0.589366         1.350982         2.888403
 H        -4.414494         0.950950         2.813224
 H        -4.619441         1.336799         1.026487
 H        -3.034459        -2.265320         2.252547
 H        -2.852585        -1.872023         0.506273
 H        -1.635635        -0.391632         2.949469
