19
Iteration:  4759
 O         0.412258        -0.048895         0.321130
 C        -0.854405         0.220289         0.938714
 C        -1.933823         0.820140         0.059075
 C        -2.460435         1.034485         1.451524
 C        -1.034141         1.564501         1.859773
 C        -3.903185         0.828437         1.817543
 O        -4.202881        -0.562566         1.483538
 C        -3.052480        -1.461032         1.652274
 C        -1.896220        -0.510076         1.845561
 H         1.144980         0.190964         0.934972
 H        -1.697409         1.685808        -0.496127
 H        -2.355032        -0.013311        -0.559745
 H        -0.448523         2.308973         1.342733
 H        -0.628629         1.402690         2.870322
 H        -4.217464         1.042118         2.889319
 H        -4.538097         1.350381         1.133358
 H        -3.191753        -2.153970         2.486713
 H        -2.963583        -2.100357         0.775521
 H        -1.511939        -0.600468         2.844109
