19
Iteration:  3079
 O         0.474477        -0.264227         0.545574
 C        -0.791443         0.334226         0.928233
 C        -1.945984         0.768882        -0.030474
 C        -2.514873         0.908830         1.414617
 C        -1.269189         1.595297         1.799391
 C        -3.918384         0.827348         1.830007
 O        -4.103801        -0.532480         1.820733
 C        -2.982487        -1.357401         1.405719
 C        -1.829256        -0.417182         1.717356
 H         1.176189         0.338434         0.004818
 H        -1.910842         1.611459        -0.830141
 H        -2.520979        -0.030507        -0.494514
 H        -1.067070         2.511144         1.286434
 H        -0.897229         1.501552         2.824642
 H        -4.104554         1.290784         2.832542
 H        -4.593302         1.389519         1.142452
 H        -2.986801        -2.271169         2.034821
 H        -3.152250        -1.750298         0.392277
 H        -1.517659        -0.482959         2.781181
