19
Iteration:  1698charge 0 multiplicity 1
 O         0.410805        -0.201691         0.539697
 C        -0.821901         0.294937         0.958381
 C        -1.948341         0.906248         0.044405
 C        -2.435865         0.928516         1.508558
 C        -1.079521         1.526707         1.925793
 C        -3.814613         0.783728         2.000220
 O        -4.198661        -0.504505         1.427360
 C        -3.106824        -1.389302         1.367204
 C        -1.823801        -0.514759         1.706018
 H         0.561231         0.319288        -0.168208
 H        -1.793875         1.877068        -0.434395
 H        -2.492239         0.280064        -0.714522
 H        -0.831977         2.580807         1.494092
 H        -0.773614         1.599085         3.049357
 H        -3.806416         0.819175         3.092317
 H        -4.586119         1.461688         1.586957
 H        -3.282625        -2.228055         2.033686
 H        -3.201542        -1.812813         0.324895
 H        -1.481351        -0.748397         2.736407
