19
Iteration:  3014charge 0 multiplicity 1
 O         0.434772        -0.214585         0.496745
 C        -0.811610         0.371638         0.838343
 C        -2.076294         0.702258        -0.044796
 C        -2.456528         0.932933         1.505389
 C        -1.181691         1.590376         1.789632
 C        -3.853555         0.859846         1.903887
 O        -4.236804        -0.542062         1.468065
 C        -2.950906        -1.402140         1.623738
 C        -1.734119        -0.434260         1.822821
 H         1.071963         0.591691         0.623801
 H        -1.918269         1.592503        -0.763884
 H        -2.706217        -0.065158        -0.533545
 H        -0.871002         2.543651         1.411198
 H        -0.751950         1.394684         2.771033
 H        -4.053298         0.910178         2.993908
 H        -4.540903         1.574193         1.421881
 H        -3.159718        -2.142850         2.424961
 H        -2.801688        -1.983724         0.677355
 H        -1.329226        -0.474256         2.862328
