19
Iteration:  3152charge 0 multiplicity 1
 O         0.429651        -0.261521         0.510973
 C        -0.792321         0.318772         0.880344
 C        -1.973139         0.760047        -0.081580
 C        -2.452396         0.950264         1.359098
 C        -1.256103         1.659351         1.948483
 C        -3.877840         0.802245         1.709808
 O        -4.071936        -0.521561         1.927284
 C        -3.042159        -1.362445         1.403616
 C        -1.812783        -0.467963         1.775049
 H         0.948334         0.259139        -0.197736
 H        -1.826759         1.490116        -0.782808
 H        -2.383395        -0.138700        -0.662366
 H        -1.297721         2.744983         1.701342
 H        -1.016981         1.376763         3.043171
 H        -4.166314         1.396625         2.560148
 H        -4.552963         1.118688         0.870310
 H        -3.129361        -2.316016         1.994665
 H        -2.987862        -1.629272         0.325404
 H        -1.490480        -0.413898         2.814797
