19
Iteration:    69
 O         0.459757        -0.125867         0.453383
 C        -0.776265         0.330584         0.931220
 C        -1.823848         0.779728        -0.006795
 C        -2.459078         1.018803         1.331439
 C        -1.109915         1.583947         1.846403
 C        -3.849108         0.855124         1.816656
 O        -4.228539        -0.620066         1.802979
 C        -3.183685        -1.445371         1.410538
 C        -1.909269        -0.466983         1.744792
 H         1.210314         0.007227         1.160026
 H        -1.634415         1.735981        -0.543482
 H        -2.265924        -0.113379        -0.664765
 H        -0.663357         2.582885         1.515053
 H        -1.099336         1.413732         2.886021
 H        -3.869605         1.158750         2.867601
 H        -4.699369         1.399325         1.303555
 H        -3.172475        -2.451423         1.977544
 H        -3.242059        -1.728887         0.326069
 H        -1.598193        -0.652560         2.780022
