19
Iteration:  1712charge 0 multiplicity 1
 O         0.348845        -0.274177         0.514266
 C        -0.806287         0.401984         0.871624
 C        -1.978265         0.910307         0.086250
 C        -2.388062         0.846932         1.609606
 C        -1.145587         1.578603         1.935356
 C        -3.840648         0.861889         1.994731
 O        -4.264564        -0.496930         1.346924
 C        -2.994879        -1.388424         1.359331
 C        -1.808743        -0.556120         1.758997
 H         1.055693         0.102231        -0.246982
 H        -1.867386         1.936811        -0.304223
 H        -2.388393         0.145163        -0.513260
 H        -0.870050         2.665954         1.454396
 H        -0.750279         1.308107         2.880028
 H        -3.991879         0.708797         3.088740
 H        -4.368873         1.721196         1.630948
 H        -3.022016        -1.959454         2.207408
 H        -2.857940        -2.034590         0.458480
 H        -1.412809        -0.835082         2.770575
