19
Iteration:  1662
 O         0.498330        -0.119536         0.534755
 C        -0.738649         0.290888         0.952478
 C        -1.939394         0.827452        -0.001850
 C        -2.452342         0.907745         1.489467
 C        -0.992714         1.463379         1.954911
 C        -3.893479         0.886221         1.931977
 O        -4.348140        -0.634205         1.627109
 C        -3.146650        -1.274086         1.259675
 C        -1.815994        -0.494224         1.725809
 H         0.671048         0.306730        -0.215455
 H        -1.867547         1.857938        -0.381263
 H        -2.344681         0.062869        -0.677952
 H        -0.848278         2.420368         1.596305
 H        -0.761869         1.235791         3.078806
 H        -4.057430         1.112325         2.989678
 H        -4.544307         1.532127         1.302246
 H        -3.097227        -2.375761         1.657516
 H        -3.053273        -1.354876         0.191611
 H        -1.416933        -0.744495         2.727565
