19
Iteration:  2469charge 0 multiplicity 1
 O         0.543102        -0.164786         0.576539
 C        -0.754858         0.406149         0.895614
 C        -1.930670         0.870078         0.081053
 C        -2.461954         0.898837         1.544708
 C        -1.082046         1.461433         1.904349
 C        -3.960428         0.844948         1.854117
 O        -4.223369        -0.571403         1.714144
 C        -3.076558        -1.341965         1.219418
 C        -1.911327        -0.498033         1.683721
 H         0.732300        -0.183722        -0.356243
 H        -1.945911         1.779140        -0.602400
 H        -2.315210         0.122272        -0.647814
 H        -0.778265         2.401045         1.663150
 H        -0.758418         1.185516         2.938463
 H        -4.046818         1.070508         2.933393
 H        -4.550869         1.549521         1.269673
 H        -3.149656        -2.270172         1.767107
 H        -3.254854        -1.471450         0.132711
 H        -1.577279        -0.814270         2.669220
