19
Iteration:  2227
 O         0.418208        -0.188973         0.457501
 C        -0.829097         0.337401         0.896344
 C        -1.871477         0.936103         0.054571
 C        -2.458629         0.914137         1.551632
 C        -1.057757         1.490923         1.980657
 C        -3.919227         0.806861         1.803706
 O        -4.192609        -0.578684         1.765804
 C        -3.050878        -1.315365         1.202217
 C        -1.832122        -0.485178         1.666846
 H         0.632544        -0.820776         1.117499
 H        -1.791990         2.022110        -0.259847
 H        -2.446637         0.285064        -0.645883
 H        -0.804261         2.517950         1.678285
 H        -0.871868         1.147825         3.108552
 H        -4.348126         1.140306         2.786085
 H        -4.377183         1.440655         1.036083
 H        -3.094739        -2.330605         1.509228
 H        -3.404065        -1.317627         0.162667
 H        -1.534962        -0.734593         2.665918
