19
Iteration:  2382charge 0 multiplicity 1
 O         0.345374        -0.198054         0.395612
 C        -0.806065         0.393541         0.966985
 C        -1.974995         1.000369         0.064835
 C        -2.426943         0.842635         1.587532
 C        -1.070706         1.548966         1.946516
 C        -3.883659         0.815048         1.943039
 O        -4.132066        -0.509878         1.384650
 C        -3.059000        -1.428291         1.353645
 C        -1.803862        -0.548260         1.806706
 H         0.651971        -0.965650         0.787389
 H        -2.012910         2.126526        -0.305957
 H        -2.490819         0.375989        -0.696239
 H        -0.865285         2.512784         1.579901
 H        -0.529820         1.498000         2.968426
 H        -4.136917         0.735939         3.031323
 H        -4.482911         1.500530         1.346561
 H        -3.189111        -2.159544         2.138385
 H        -3.077345        -1.846586         0.344217
 H        -1.641030        -0.650316         2.880823
