19
Iteration:  2780charge 0 multiplicity 1
 O         0.523070        -0.127935         0.484064
 C        -0.759639         0.272785         0.918449
 C        -1.896344         0.868358        -0.010656
 C        -2.456546         0.941076         1.395797
 C        -1.062117         1.698121         1.910235
 C        -4.012730         0.802263         1.871016
 O        -4.207700        -0.614890         1.771314
 C        -3.084405        -1.408529         1.343688
 C        -1.874379        -0.464427         1.747628
 H         0.422544        -1.159966         0.245160
 H        -1.533585         1.726495        -0.693120
 H        -2.395368         0.130121        -0.625315
 H        -0.752914         2.741729         1.562581
 H        -0.889036         1.453852         2.893802
 H        -4.300000         1.150831         2.882132
 H        -4.661958         1.348992         1.136572
 H        -3.153321        -2.364187         1.968672
 H        -3.159576        -1.739852         0.289922
 H        -1.530011        -0.626980         2.748567
