19
Iteration:  1612
 O         0.408087        -0.284415         0.526436
 C        -0.798904         0.359143         0.924093
 C        -1.811011         1.018182        -0.010241
 C        -2.500174         1.000937         1.442452
 C        -1.021114         1.450107         2.025535
 C        -4.001392         0.701796         1.758342
 O        -4.233947        -0.623374         1.875596
 C        -3.050314        -1.297251         1.241249
 C        -1.856674        -0.455595         1.676481
 H         1.004570         0.437194        -0.025497
 H        -1.597429         1.944762        -0.568841
 H        -2.431024         0.351329        -0.699625
 H        -0.569861         2.486470         1.876821
 H        -0.854555         0.979012         3.016261
 H        -4.030632         1.385744         2.653024
 H        -4.667837         1.106980         0.983223
 H        -3.099639        -2.316501         1.408065
 H        -3.211320        -1.241495         0.102884
 H        -1.523672        -0.660292         2.743772
