19
Iteration:  4093
 O         0.519028        -0.102690         0.637076
 C        -0.828284         0.300115         0.902007
 C        -1.892880         0.650200        -0.162926
 C        -2.556632         1.004176         1.339176
 C        -1.070829         1.609929         1.672147
 C        -3.930476         0.795388         1.973403
 O        -4.198905        -0.611641         1.867866
 C        -3.006653        -1.348129         1.430045
 C        -1.926136        -0.443631         1.757104
 H         0.743629         0.370357        -0.100490
 H        -1.641775         1.391382        -0.883780
 H        -2.232597        -0.288190        -0.708968
 H        -0.955128         2.511577         1.050773
 H        -0.553351         1.802440         2.624680
 H        -3.965854         1.103864         3.082348
 H        -4.757482         1.270487         1.457440
 H        -2.932429        -2.295375         1.964575
 H        -3.281787        -1.514901         0.336353
 H        -1.668648        -0.455591         2.784787
