19
Iteration:   416charge 0 multiplicity 1
 O         0.321416        -0.223333         0.464761
 C        -0.841516         0.287433         0.974522
 C        -1.840876         0.865419         0.032603
 C        -2.452923         1.055522         1.477129
 C        -1.016742         1.534971         1.901045
 C        -3.919330         0.823271         1.781364
 O        -4.162078        -0.668478         1.822786
 C        -3.043782        -1.333334         1.219813
 C        -1.898071        -0.416531         1.695134
 H         1.083421        -0.129650         1.235865
 H        -1.499703         1.856243        -0.304621
 H        -2.539503         0.208114        -0.605390
 H        -0.645364         2.476071         1.455052
 H        -0.785498         1.452475         2.959836
 H        -4.197276         1.246778         2.689397
 H        -4.501527         1.224396         0.974937
 H        -2.918887        -2.271100         1.765472
 H        -3.241044        -1.622504         0.100637
 H        -1.815000        -0.691106         2.753782
