19
Iteration:  3644
 O         0.396864        -0.141381         0.560195
 C        -0.877771         0.285351         0.791184
 C        -1.976800         0.811488        -0.045460
 C        -2.472261         0.966521         1.562257
 C        -0.940288         1.534705         1.754078
 C        -3.985755         0.754601         1.956134
 O        -4.236570        -0.573822         1.504744
 C        -3.004819        -1.353398         1.525367
 C        -1.791426        -0.430553         1.837794
 H         0.963417         0.555806         0.057655
 H        -1.857682         1.678143        -0.753265
 H        -2.402272         0.082308        -0.631532
 H        -0.632735         2.500428         1.339092
 H        -0.516221         1.491262         2.729325
 H        -4.046498         0.870423         3.039856
 H        -4.679349         1.414726         1.454844
 H        -2.956949        -2.087380         2.290113
 H        -3.056611        -1.953146         0.596295
 H        -1.463081        -0.650614         2.864349
