19
Iteration:  2202charge 0 multiplicity 1
 O         0.403576        -0.264494         0.414279
 C        -0.800487         0.300867         0.991410
 C        -1.887683         1.076205         0.001029
 C        -2.462424         1.029031         1.471446
 C        -0.966017         1.464840         2.037959
 C        -4.020004         0.812384         1.805651
 O        -4.232378        -0.683303         1.853647
 C        -2.937628        -1.364079         1.139913
 C        -1.921454        -0.411764         1.697559
 H         0.812188        -0.824656         0.987049
 H        -1.761966         2.066850        -0.311890
 H        -2.497467         0.462369        -0.725603
 H        -0.457094         2.479083         1.688096
 H        -0.679972         1.207358         3.023741
 H        -4.518614         1.267635         2.643277
 H        -4.384130         1.179588         0.834956
 H        -2.883279        -2.378960         1.582209
 H        -3.194924        -1.348440         0.098921
 H        -1.892405        -0.553649         2.760677
