19
Iteration:  4006
 O         0.444064        -0.172909         0.480570
 C        -0.832754         0.310120         0.929517
 C        -1.853444         0.762677        -0.054327
 C        -2.503782         0.913817         1.360646
 C        -1.054726         1.625945         1.695674
 C        -4.033625         0.785857         1.714630
 O        -4.194225        -0.618023         1.951994
 C        -3.000298        -1.342259         1.494907
 C        -1.860035        -0.441578         1.879184
 H         0.944195         0.608030        -0.099337
 H        -1.577396         1.676221        -0.479839
 H        -2.290332         0.018560        -0.770504
 H        -0.869013         2.617287         1.252937
 H        -0.818979         1.600360         2.784969
 H        -4.285456         1.370273         2.628945
 H        -4.722960         1.180485         0.964166
 H        -2.912541        -2.286681         1.944565
 H        -3.044999        -1.600545         0.431056
 H        -1.424878        -0.626493         2.797497
