19
Iteration:  1793
 O         0.502938        -0.300416         0.492589
 C        -0.787142         0.333372         0.892437
 C        -2.015566         0.921793         0.121409
 C        -2.474713         0.881910         1.580129
 C        -1.153413         1.552241         1.995555
 C        -3.867458         0.869731         1.952489
 O        -4.233468        -0.489201         1.448895
 C        -3.022487        -1.427668         1.325199
 C        -1.809462        -0.448258         1.665564
 H         0.747704         0.256253        -0.411525
 H        -1.825232         1.880198        -0.391601
 H        -2.568445         0.067775        -0.440386
 H        -1.044087         2.533550         1.650590
 H        -0.724654         1.288921         3.043189
 H        -4.007992         0.965589         3.058319
 H        -4.517127         1.655723         1.429507
 H        -2.908662        -2.264146         2.118632
 H        -3.160931        -1.965278         0.399071
 H        -1.404914        -0.698693         2.686133
