19
Iteration:  3291
 O         0.373259        -0.154806         0.463891
 C        -0.898851         0.324690         0.872709
 C        -2.076408         0.852751         0.070384
 C        -2.443894         0.978118         1.544106
 C        -0.997664         1.599144         1.762562
 C        -3.878722         0.796665         1.754592
 O        -4.121139        -0.627939         1.489070
 C        -2.889123        -1.426489         1.688033
 C        -1.881814        -0.379746         1.880959
 H         0.292414        -0.775423        -0.223318
 H        -1.883967         1.752570        -0.563913
 H        -2.872500         0.129415        -0.447908
 H        -0.738461         2.427642         1.134537
 H        -0.475859         1.415683         2.708006
 H        -4.311727         1.165327         2.748267
 H        -4.459426         1.265800         0.953049
 H        -3.089894        -2.116579         2.518614
 H        -2.846984        -1.951130         0.701433
 H        -1.512373        -0.441454         2.947646
