19
Iteration:  1690
 O         0.452997        -0.151415         0.528127
 C        -0.798540         0.245076         0.943416
 C        -1.940713         0.873147         0.005818
 C        -2.433486         1.015217         1.477182
 C        -1.027871         1.482957         1.939819
 C        -3.889705         0.727108         1.990936
 O        -4.210084        -0.458225         1.499857
 C        -3.096595        -1.430077         1.340417
 C        -1.906678        -0.485079         1.729253
 H         0.732029         0.301693        -0.206587
 H        -1.664238         1.885857        -0.335917
 H        -2.465024         0.207368        -0.649335
 H        -0.959266         2.580181         1.470863
 H        -0.729358         1.368883         2.963314
 H        -3.896185         0.800734         3.117090
 H        -4.610356         1.436827         1.623325
 H        -3.192011        -2.239996         1.984349
 H        -2.955271        -1.715067         0.269740
 H        -1.689869        -0.727553         2.794459
