19
Iteration:  4963
 O         0.413031        -0.437089         0.648693
 C        -0.827817         0.313974         0.858388
 C        -2.080274         0.908314        -0.074800
 C        -2.451089         1.044358         1.436553
 C        -1.159391         1.735732         1.802848
 C        -3.856355         0.714709         1.915296
 O        -4.144589        -0.620607         1.592840
 C        -2.938294        -1.369899         1.449690
 C        -1.846276        -0.333337         1.738870
 H         0.994100         0.155930         0.300839
 H        -1.841817         1.755649        -0.748086
 H        -2.659828         0.154519        -0.714109
 H        -0.975963         2.734876         1.454721
 H        -0.946469         1.585165         2.883770
 H        -3.649571         0.798195         2.958548
 H        -4.724956         1.291009         1.583469
 H        -2.888976        -2.149471         2.265696
 H        -2.981588        -1.905676         0.468170
 H        -1.374323        -0.385987         2.763336
