19
Iteration:  3114
 O         0.361789        -0.287749         0.646428
 C        -0.835598         0.394466         0.864105
 C        -1.810546         0.947312        -0.126168
 C        -2.566171         0.920997         1.384877
 C        -0.981856         1.589245         1.734621
 C        -4.060262         0.677642         1.757547
 O        -4.113220        -0.645665         1.957612
 C        -2.984420        -1.351140         1.406237
 C        -1.870204        -0.363338         1.822704
 H         0.648265         0.200857        -0.298750
 H        -1.487678         1.983166        -0.636612
 H        -2.303605         0.259336        -0.735441
 H        -0.742756         2.521922         1.189190
 H        -0.486816         1.509434         2.659056
 H        -4.378600         1.218466         2.693376
 H        -4.664109         0.987468         0.910447
 H        -3.094363        -2.318161         1.857104
 H        -3.199571        -1.408146         0.303253
 H        -1.625762        -0.525598         2.891845
