19
Iteration:   194
 O         0.504449        -0.022560         0.543285
 C        -0.776679         0.336716         0.861005
 C        -1.886170         0.674376        -0.074954
 C        -2.439207         0.931116         1.513739
 C        -0.958531         1.563797         1.715177
 C        -3.940941         0.741441         2.010736
 O        -4.309279        -0.529002         1.597754
 C        -3.169704        -1.349987         1.432571
 C        -1.867217        -0.468588         1.757537
 H         0.935112        -0.292266         1.313340
 H        -1.841074         1.613511        -0.807471
 H        -2.346610        -0.118958        -0.609066
 H        -0.797953         2.454916         1.121332
 H        -0.569447         1.593669         2.783219
 H        -4.006485         0.846107         3.158460
 H        -4.674057         1.449572         1.582395
 H        -3.283705        -2.172540         2.120300
 H        -3.159234        -1.600361         0.323060
 H        -1.585299        -0.802834         2.765813
