19
Iteration:  4982
 O         0.301818        -0.279843         0.607380
 C        -0.808815         0.415567         0.901473
 C        -1.915264         0.826321        -0.066107
 C        -2.508552         1.034994         1.335016
 C        -1.084169         1.572992         1.833154
 C        -3.893541         0.788327         1.986284
 O        -4.172768        -0.630816         1.541015
 C        -2.918220        -1.422277         1.531015
 C        -1.865755        -0.371289         1.736912
 H         0.714438         0.000980        -0.130267
 H        -1.881929         1.752489        -0.724093
 H        -2.245495         0.072809        -0.783730
 H        -0.776471         2.534609         1.423698
 H        -0.776088         1.483996         2.882474
 H        -3.743802         0.887050         3.131165
 H        -4.648333         1.462587         1.544713
 H        -2.966754        -2.122950         2.369561
 H        -2.876029        -2.069389         0.602798
 H        -1.604617        -0.285546         2.818607
