19
Iteration:  2214
 O         0.431913        -0.252083         0.426226
 C        -0.738057         0.345338         0.903862
 C        -1.944176         1.008970         0.086799
 C        -2.460541         1.025980         1.530627
 C        -0.983937         1.457009         2.031247
 C        -4.041454         0.800091         1.749757
 O        -4.160342        -0.661195         1.809762
 C        -3.058412        -1.271896         1.178992
 C        -1.902799        -0.437589         1.669433
 H         0.726583        -0.951117         1.203460
 H        -1.677540         1.861560        -0.492941
 H        -2.430112         0.255259        -0.618183
 H        -0.682368         2.553307         1.793538
 H        -0.642558         1.136236         3.038549
 H        -4.329072         1.213856         2.717296
 H        -4.776115         1.121212         1.012304
 H        -3.061355        -2.254562         1.624965
 H        -3.000039        -1.408366         0.107408
 H        -1.585414        -0.761442         2.633483
