19
Iteration:  4652charge 0 multiplicity 1
 O         0.344517        -0.384134         0.412307
 C        -0.775699         0.359788         0.807827
 C        -1.992161         0.863132         0.046314
 C        -2.446438         0.995871         1.462213
 C        -1.218433         1.685695         1.949797
 C        -3.900407         0.813672         1.712609
 O        -4.106170        -0.613776         1.732209
 C        -2.905156        -1.368245         1.454989
 C        -1.844027        -0.346330         1.790676
 H         0.656860        -0.862269         1.278707
 H        -1.927096         1.791641        -0.579445
 H        -2.381534        -0.036442        -0.568990
 H        -1.010150         2.605829         1.443923
 H        -1.080518         1.720624         3.024274
 H        -4.219907         1.173633         2.686496
 H        -4.605465         1.247051         1.061077
 H        -2.750722        -2.198364         2.143784
 H        -2.890671        -1.646550         0.351966
 H        -1.282102        -0.587609         2.751772
