19
Iteration:   934
 O         0.445974        -0.175184         0.482259
 C        -0.757231         0.328217         0.912689
 C        -1.895893         0.882454         0.033149
 C        -2.451347         0.988820         1.477784
 C        -0.999200         1.465208         1.938414
 C        -3.831827         0.789073         2.016901
 O        -4.315680        -0.546319         1.539445
 C        -3.090838        -1.380953         1.207008
 C        -1.967250        -0.472736         1.756748
 H         1.150558         0.063895         0.963444
 H        -1.674577         1.802133        -0.445751
 H        -2.384129         0.039690        -0.508197
 H        -0.887476         2.551022         1.667589
 H        -0.729125         1.301629         3.018910
 H        -3.752869         0.851788         3.067507
 H        -4.513473         1.527226         1.626860
 H        -3.253907        -2.310446         1.742288
 H        -2.945836        -1.537833         0.174964
 H        -1.842706        -0.660917         2.826066
