19
Iteration:   338
 O         0.551698        -0.080224         0.594336
 C        -0.829854         0.250241         0.897290
 C        -1.935494         0.766055         0.060477
 C        -2.476803         0.920077         1.509501
 C        -1.057835         1.518910         1.718413
 C        -3.871535         0.804743         2.003541
 O        -4.306775        -0.529243         1.539098
 C        -3.071357        -1.337735         1.387624
 C        -1.897747        -0.455954         1.791837
 H         0.745447        -0.140849        -0.250461
 H        -1.740604         1.771549        -0.564550
 H        -2.339296         0.025155        -0.746325
 H        -0.778738         2.524464         1.254499
 H        -0.714532         1.392997         2.700831
 H        -3.917420         0.886392         3.046943
 H        -4.447789         1.558099         1.520651
 H        -3.278423        -2.219076         1.990298
 H        -2.880566        -1.687258         0.296201
 H        -1.549016        -0.667958         2.802399
