19
Iteration:  1907charge 0 multiplicity 1
 O         0.416691        -0.253706         0.471248
 C        -0.790555         0.304057         0.892473
 C        -1.861166         0.999466         0.020970
 C        -2.467889         0.954038         1.484656
 C        -0.943059         1.418520         2.029190
 C        -3.980255         0.791118         1.780595
 O        -4.276515        -0.666262         1.801347
 C        -3.011458        -1.295086         1.254015
 C        -1.923212        -0.418353         1.696852
 H         1.097011         0.475141         0.488282
 H        -1.602194         2.046368        -0.364674
 H        -2.402764         0.366641        -0.632562
 H        -0.812112         2.507079         1.679772
 H        -0.748451         1.387737         3.053822
 H        -4.301864         1.365501         2.681670
 H        -4.552592         1.205082         0.902245
 H        -2.862782        -2.308096         1.664826
 H        -3.305079        -1.391030         0.145258
 H        -1.690134        -0.707171         2.724444
