19
Iteration:  4019
 O         0.368028        -0.187254         0.459261
 C        -0.762766         0.304189         0.946439
 C        -1.944005         0.828061        -0.087147
 C        -2.485128         0.928141         1.377368
 C        -0.981358         1.623259         1.756040
 C        -3.944456         0.768481         1.656645
 O        -4.156523        -0.675446         1.970267
 C        -3.019644        -1.392571         1.504836
 C        -1.891187        -0.386392         1.865940
 H         0.810785         0.593002         0.298967
 H        -1.844038         1.820610        -0.553984
 H        -2.354969         0.150284        -0.840143
 H        -0.604015         2.492287         1.113598
 H        -0.741262         1.715875         2.837925
 H        -4.404320         1.285445         2.481848
 H        -4.409537         0.865554         0.642263
 H        -3.133335        -2.236108         2.129284
 H        -3.094702        -1.502269         0.429295
 H        -1.930663        -0.186114         2.964903
