19
Iteration:   353charge 0 multiplicity 1
 O         0.444135        -0.022573         0.609668
 C        -0.809750         0.305525         0.899466
 C        -1.963595         0.801138        -0.067078
 C        -2.405725         0.913498         1.455456
 C        -0.948981         1.484055         1.875558
 C        -3.874362         0.832129         1.862172
 O        -4.244737        -0.542618         1.598588
 C        -3.087474        -1.397372         1.389121
 C        -1.905967        -0.516302         1.820938
 H         0.349832        -0.429916        -0.354255
 H        -1.839205         1.685821        -0.595948
 H        -2.586267         0.156291        -0.682347
 H        -0.689848         2.414068         1.389119
 H        -0.503662         1.435984         2.922412
 H        -3.948386         1.018308         2.958116
 H        -4.703816         1.416194         1.416335
 H        -3.078652        -2.236440         2.074520
 H        -3.204952        -1.662638         0.401378
 H        -1.698455        -0.536650         2.918904
