19
Iteration:  3339charge 0 multiplicity 1
 O         0.529831        -0.059458         0.384199
 C        -0.772221         0.327821         0.885601
 C        -1.934210         0.622590        -0.061170
 C        -2.471115         0.976688         1.457726
 C        -1.051885         1.623918         1.705983
 C        -3.857870         0.802066         2.006472
 O        -4.315168        -0.551137         1.577059
 C        -3.092637        -1.439593         1.507711
 C        -1.870714        -0.392611         1.885448
 H         1.162919        -0.328835         1.216592
 H        -1.879127         1.530670        -0.692797
 H        -2.382084        -0.190948        -0.597582
 H        -0.989506         2.609676         1.210757
 H        -0.895781         1.527412         2.780193
 H        -3.844709         0.723774         3.095208
 H        -4.691546         1.483536         1.730293
 H        -3.215155        -2.135931         2.346952
 H        -3.086787        -1.935017         0.528505
 H        -1.670981        -0.472860         2.937933
