19
Iteration:   263charge 0 multiplicity 1
 O         0.397353        -0.357337         0.406285
 C        -0.794566         0.337934         0.898272
 C        -2.013283         0.977451         0.134524
 C        -2.445653         0.999749         1.574524
 C        -0.954776         1.537646         1.859716
 C        -4.009905         0.816234         1.759486
 O        -4.215548        -0.664449         1.469483
 C        -2.965448        -1.383752         1.531781
 C        -1.859287        -0.342978         1.848729
 H         1.228066         0.159976         0.411025
 H        -1.997401         1.879804        -0.349238
 H        -2.621355         0.268630        -0.482276
 H        -0.724220         2.511036         1.256647
 H        -0.596982         1.469406         2.852209
 H        -4.432070         1.030542         2.828117
 H        -4.648178         1.354146         1.062246
 H        -3.018647        -2.125128         2.290748
 H        -2.771791        -1.742502         0.546791
 H        -1.480760        -0.488958         2.884053
