19
Iteration:  1323charge 0 multiplicity 1
 O         0.387797        -0.188295         0.495662
 C        -0.821816         0.282156         0.914339
 C        -1.867001         1.095199         0.026065
 C        -2.389417         0.915008         1.445762
 C        -1.088686         1.435251         2.122480
 C        -3.879562         0.808784         1.738056
 O        -4.170210        -0.608049         1.865881
 C        -3.145232        -1.356682         1.160047
 C        -1.866390        -0.544198         1.566117
 H         1.006009         0.053730         1.241019
 H        -1.421323         2.034680        -0.288171
 H        -2.324182         0.505056        -0.803282
 H        -0.890579         2.346935         1.797715
 H        -0.878877         1.189252         3.156828
 H        -4.006219         1.223315         2.765354
 H        -4.576929         1.333922         1.003682
 H        -3.269392        -2.427604         1.487420
 H        -3.244771        -1.202811         0.105784
 H        -1.844119        -0.662570         2.679866
