19
Iteration:  2347
 O         0.263261        -0.254841         0.273209
 C        -0.749161         0.330612         1.006632
 C        -2.012491         0.854677         0.112046
 C        -2.443294         0.977196         1.600731
 C        -0.956029         1.536311         2.070418
 C        -3.944489         0.750606         1.922299
 O        -4.153760        -0.542399         1.288789
 C        -2.972464        -1.302244         1.335344
 C        -1.877754        -0.381959         1.872573
 H         1.076608        -0.191063         0.853461
 H        -1.902663         1.789161        -0.567376
 H        -2.505531         0.030972        -0.369082
 H        -0.672777         2.483499         1.696044
 H        -0.574369         1.210615         3.020368
 H        -4.207389         0.560563         2.976813
 H        -4.648604         1.517852         1.617141
 H        -2.948628        -2.115807         2.029527
 H        -2.874631        -1.820006         0.384267
 H        -1.697167        -0.602950         2.909863
