19
Iteration:  2876charge 0 multiplicity 1
 O         0.487776        -0.054412         0.494809
 C        -0.798733         0.246611         0.898673
 C        -1.878094         0.782353        -0.053612
 C        -2.445392         0.906563         1.377894
 C        -1.162009         1.514193         1.793172
 C        -3.850167         0.860372         1.916617
 O        -4.240411        -0.592215         1.764328
 C        -3.115564        -1.372301         1.415704
 C        -1.847254        -0.468707         1.727042
 H         0.903637         0.096999         1.273659
 H        -1.695634         1.700015        -0.677775
 H        -2.353577         0.053054        -0.625894
 H        -0.936867         2.561766         1.379858
 H        -1.054799         1.494335         2.841555
 H        -3.918428         1.299657         2.930026
 H        -4.553416         1.375525         1.278920
 H        -3.119441        -2.306735         1.994649
 H        -3.179479        -1.755240         0.380525
 H        -1.549014        -0.518746         2.773326
