19
Iteration:   111
 O         0.361215        -0.292124         0.425581
 C        -0.793940         0.301110         0.944077
 C        -1.967580         0.913078         0.075414
 C        -2.454107         1.020360         1.511046
 C        -1.015113         1.648245         1.817281
 C        -3.983367         0.814240         1.626908
 O        -4.175985        -0.686557         1.792989
 C        -2.992713        -1.295937         1.393004
 C        -1.814812        -0.463335         1.859047
 H         0.760775        -0.672887         1.119605
 H        -1.788921         1.869087        -0.337264
 H        -2.563513         0.242454        -0.601434
 H        -0.751472         2.668288         1.348763
 H        -0.539558         1.591680         2.758339
 H        -4.389649         1.226595         2.445172
 H        -4.495048         1.079772         0.710036
 H        -3.046582        -2.360438         1.688259
 H        -2.968709        -1.395405         0.324210
 H        -1.588666        -0.562500         2.934349
