19
Iteration:  4749
 O         0.408017        -0.012952         0.336261
 C        -0.813410         0.292433         0.928741
 C        -1.929641         0.733736         0.059056
 C        -2.383480         0.916317         1.544619
 C        -1.034822         1.598940         1.833432
 C        -3.905742         0.862015         1.761350
 O        -4.272457        -0.533023         1.484351
 C        -3.094802        -1.464143         1.628526
 C        -1.805957        -0.584642         1.845604
 H         1.088586         0.073097         0.937971
 H        -1.768072         1.658822        -0.509301
 H        -2.623416         0.046833        -0.514075
 H        -0.954874         2.560009         1.304272
 H        -0.759656         1.626098         2.901716
 H        -4.008283         1.057105         2.867449
 H        -4.480657         1.559254         1.185000
 H        -3.270431        -2.050739         2.536527
 H        -3.092540        -2.097828         0.704235
 H        -1.354369        -0.666182         2.830007
