19
Iteration:  3756
 O         0.463687        -0.132896         0.437368
 C        -0.781402         0.388498         0.914126
 C        -1.837181         0.819158        -0.047292
 C        -2.484981         0.915841         1.371997
 C        -1.205506         1.583966         1.944305
 C        -3.958284         0.828285         1.689162
 O        -4.113167        -0.561417         1.981746
 C        -3.032662        -1.397718         1.441591
 C        -1.842553        -0.508739         1.676797
 H         0.324021        -1.065436         0.050704
 H        -1.651523         1.725480        -0.595820
 H        -2.280648         0.128782        -0.847417
 H        -1.077146         2.639455         1.736770
 H        -0.963609         1.489280         3.023432
 H        -4.273449         1.378158         2.570120
 H        -4.679255         1.130228         0.897526
 H        -3.017018        -2.325083         2.011400
 H        -3.359532        -1.718995         0.407255
 H        -1.575795        -0.533345         2.766037
