19
Iteration:   443charge 0 multiplicity 1
 O         0.502727        -0.288447         0.603899
 C        -0.802020         0.342491         0.869915
 C        -1.936020         0.877614        -0.048579
 C        -2.479329         0.970876         1.403531
 C        -1.118193         1.484877         1.860232
 C        -3.935848         0.836249         1.878344
 O        -4.232039        -0.600353         1.823261
 C        -3.067198        -1.310970         1.229299
 C        -1.786351        -0.500412         1.720916
 H         1.265532         0.508642         0.627933
 H        -1.822500         1.918336        -0.410178
 H        -2.410322         0.336724        -0.822213
 H        -0.731750         2.521834         1.757093
 H        -1.002268         1.317946         3.000840
 H        -4.107713         1.352781         2.908244
 H        -4.661074         1.390843         1.215276
 H        -3.289076        -2.371526         1.544016
 H        -3.194517        -1.182729         0.208904
 H        -1.542928        -0.708379         2.780247
