19
Iteration:  3328
 O         0.471748        -0.055053         0.350884
 C        -0.735750         0.339213         0.862229
 C        -1.903502         0.629247        -0.005034
 C        -2.464072         0.884155         1.482337
 C        -1.175391         1.583577         1.769659
 C        -3.922908         0.759411         1.980394
 O        -4.272874        -0.509292         1.547725
 C        -3.034694        -1.326166         1.564173
 C        -1.852864        -0.401929         1.834780
 H         0.704864        -0.792537         0.996859
 H        -1.745658         1.473357        -0.701822
 H        -2.287634        -0.254541        -0.505365
 H        -0.877690         2.562023         1.330214
 H        -0.691197         1.674176         2.758556
 H        -3.936941         0.942962         3.057656
 H        -4.528614         1.542757         1.467434
 H        -3.045895        -2.031826         2.403504
 H        -2.894685        -1.985995         0.704122
 H        -1.479577        -0.417059         2.838593
