19
Iteration:  3877
 O         0.417597        -0.184465         0.284112
 C        -0.800358         0.328228         0.916451
 C        -2.103245         0.765694         0.074700
 C        -2.469936         0.983062         1.561932
 C        -1.006511         1.625351         1.750100
 C        -3.940055         0.785888         1.794647
 O        -4.203683        -0.627220         1.450044
 C        -2.933827        -1.372699         1.685430
 C        -1.819869        -0.394397         1.937765
 H         0.960004        -0.519614         0.956598
 H        -1.982373         1.707327        -0.451161
 H        -2.739175         0.053516        -0.577627
 H        -0.794168         2.604035         1.270461
 H        -0.790232         1.717382         2.833921
 H        -4.183953         0.986746         2.828005
 H        -4.531506         1.383789         1.060310
 H        -3.079836        -2.024105         2.549736
 H        -2.687958        -1.981410         0.730543
 H        -1.375829        -0.310385         2.989055
