19
Iteration:  2294
 O         0.465459        -0.080508         0.468613
 C        -0.764950         0.304535         0.859109
 C        -1.953097         0.871600         0.045711
 C        -2.411600         0.914806         1.524165
 C        -1.059131         1.456726         1.934504
 C        -3.876675         0.835596         1.997862
 O        -4.273400        -0.455082         1.456325
 C        -3.141404        -1.461051         1.358173
 C        -1.858468        -0.553699         1.717549
 H         1.130145         0.286878         1.152349
 H        -1.984216         1.965526        -0.348745
 H        -2.474909         0.171332        -0.597725
 H        -0.645939         2.402324         1.638999
 H        -0.539408         1.121436         2.963602
 H        -3.889219         0.815545         3.130171
 H        -4.617968         1.533868         1.608337
 H        -3.292594        -2.348448         1.981410
 H        -3.156226        -1.771888         0.294099
 H        -1.488776        -0.740057         2.722564
