19
Iteration:  3990charge 0 multiplicity 1
 O         0.521344        -0.174950         0.568983
 C        -0.756556         0.299486         0.872468
 C        -1.943588         0.665282        -0.101732
 C        -2.510861         0.941718         1.390006
 C        -1.246075         1.626272         1.788459
 C        -3.934612         0.876246         1.838510
 O        -4.201943        -0.592276         1.897453
 C        -2.974821        -1.356285         1.463541
 C        -1.765861        -0.421292         1.713651
 H         0.862066         0.241530        -0.328496
 H        -1.965569         1.556602        -0.866999
 H        -2.434692        -0.167438        -0.588945
 H        -1.026260         2.557328         1.269542
 H        -0.960071         1.595257         2.849132
 H        -4.167580         1.365888         2.817271
 H        -4.611060         1.268435         1.046812
 H        -3.100982        -2.329076         2.099617
 H        -3.115348        -1.655740         0.383603
 H        -1.661983        -0.452317         2.894560
