19
Iteration:  4338
 O         0.397551        -0.316335         0.595607
 C        -0.742291         0.338637         0.865766
 C        -1.936422         0.899079        -0.033232
 C        -2.456991         1.025614         1.385662
 C        -1.135000         1.612481         1.887237
 C        -4.000955         0.767771         1.668669
 O        -4.102539        -0.647607         2.017577
 C        -2.965182        -1.357964         1.382677
 C        -1.871070        -0.396371         1.693755
 H         0.717970        -0.172570        -0.392330
 H        -1.912556         1.801587        -0.630492
 H        -2.401458         0.079802        -0.657330
 H        -1.162187         2.621873         1.395802
 H        -0.848952         1.748473         2.980652
 H        -4.517948         1.358354         2.385256
 H        -4.457025         0.865962         0.632763
 H        -2.894524        -2.369651         1.908517
 H        -3.064688        -1.462681         0.261998
 H        -1.544501        -0.440350         2.724691
