19
Iteration:  3444charge 0 multiplicity 1
 O         0.452655        -0.163713         0.434583
 C        -0.807937         0.380308         0.900028
 C        -1.953886         0.820335         0.007039
 C        -2.472074         0.935765         1.402387
 C        -1.100500         1.565158         1.860180
 C        -3.928852         0.790035         1.653604
 O        -4.183151        -0.600357         1.933695
 C        -2.997807        -1.313843         1.452043
 C        -1.846166        -0.437709         1.730485
 H         0.618558        -0.986069         0.781167
 H        -1.782936         1.808914        -0.404307
 H        -2.584884         0.169294        -0.715677
 H        -0.741545         2.559084         1.628323
 H        -0.800050         1.252489         2.891322
 H        -4.405634         1.287298         2.507624
 H        -4.520871         1.026303         0.778352
 H        -2.999662        -2.249234         2.024765
 H        -3.064054        -1.623400         0.385312
 H        -1.408100        -0.608659         2.770400
