19
Iteration:    75
 O         0.419947        -0.161824         0.456437
 C        -0.800159         0.304082         0.966845
 C        -1.860873         0.786089        -0.019791
 C        -2.464443         1.024545         1.340070
 C        -1.118445         1.595451         1.896800
 C        -3.879567         0.867262         1.768382
 O        -4.188041        -0.610245         1.807912
 C        -3.110485        -1.415886         1.401950
 C        -1.853124        -0.501752         1.707611
 H         1.071083        -0.040143         1.028777
 H        -1.717643         1.680443        -0.607332
 H        -2.353160         0.067669        -0.545565
 H        -0.760683         2.542106         1.552507
 H        -0.983201         1.318648         2.997778
 H        -3.991736         1.284421         2.812326
 H        -4.666242         1.335263         1.216946
 H        -3.098979        -2.262400         2.032709
 H        -3.211053        -1.671307         0.345459
 H        -1.620564        -0.535346         2.794832
