19
Iteration:  2476charge 0 multiplicity 1
 O         0.492226        -0.171203         0.598565
 C        -0.766399         0.318136         0.884996
 C        -1.929914         0.932085         0.033175
 C        -2.450654         0.929006         1.533304
 C        -1.089786         1.417769         1.907288
 C        -3.901940         0.864591         1.842869
 O        -4.245014        -0.614698         1.735483
 C        -3.070470        -1.352963         1.200354
 C        -1.880807        -0.444091         1.707381
 H         0.694361         0.118933        -0.412728
 H        -1.893392         1.947876        -0.417140
 H        -2.429141         0.164398        -0.504904
 H        -0.753429         2.536116         1.678448
 H        -0.700791         1.085837         2.863199
 H        -4.084146         1.176740         2.892223
 H        -4.560330         1.397017         1.123434
 H        -3.092660        -2.281717         1.832698
 H        -3.001758        -1.583493         0.103401
 H        -1.719604        -0.679324         2.797449
