19
Iteration:  4489
 O         0.293154        -0.277613         0.320917
 C        -0.849748         0.351764         0.956100
 C        -1.963841         0.843813         0.005132
 C        -2.437798         1.051603         1.508618
 C        -1.058581         1.654243         1.817772
 C        -3.958961         0.744035         1.705935
 O        -4.146491        -0.649571         1.615327
 C        -2.854190        -1.397389         1.575766
 C        -1.824613        -0.342566         1.945881
 H         0.517426        -0.918245         0.985349
 H        -1.935566         1.847029        -0.431023
 H        -2.567750         0.177857        -0.720449
 H        -0.848886         2.650227         1.411534
 H        -0.824858         1.450312         2.877889
 H        -4.502495         1.213325         2.579408
 H        -4.442081         1.359657         0.828526
 H        -3.004976        -2.121532         2.362333
 H        -2.719427        -1.940207         0.627021
 H        -1.311124        -0.464808         2.913993
