19
Iteration:   382charge 0 multiplicity 1
 O         0.481806        -0.149019         0.404967
 C        -0.743723         0.306969         0.870697
 C        -1.876367         0.846375         0.065596
 C        -2.459578         0.884467         1.505930
 C        -1.166104         1.469335         1.956254
 C        -3.938710         0.854117         1.767923
 O        -4.237316        -0.550611         1.713698
 C        -3.010929        -1.316385         1.392820
 C        -1.836516        -0.440013         1.764002
 H         0.422982        -1.046626         0.504229
 H        -1.711202         1.946679        -0.316311
 H        -2.381777         0.381662        -0.867230
 H        -0.996392         2.557895         1.639461
 H        -0.956878         1.309493         2.965108
 H        -4.305374         1.249954         2.698723
 H        -4.509386         1.310006         0.978913
 H        -2.883159        -2.152462         2.090625
 H        -3.281216        -1.713437         0.318770
 H        -1.586944        -0.619160         2.814343
