19
Iteration:  4638
 O         0.262024        -0.261921         0.375325
 C        -0.854478         0.310587         0.966524
 C        -1.880009         0.808933        -0.045503
 C        -2.480333         0.969634         1.462039
 C        -1.114650         1.691014         1.881789
 C        -3.965092         0.831583         1.694962
 O        -4.115734        -0.634656         1.789544
 C        -2.899303        -1.355795         1.415252
 C        -1.765981        -0.414272         1.878338
 H         0.793713        -0.726236         1.086740
 H        -1.672528         1.725013        -0.549629
 H        -2.473620         0.107100        -0.650493
 H        -0.908720         2.704029         1.530681
 H        -0.741468         1.504327         2.903268
 H        -4.365553         1.292950         2.613816
 H        -4.499271         1.189455         0.841187
 H        -3.149800        -2.348920         1.872962
 H        -2.841679        -1.514411         0.319713
 H        -1.630569        -0.405061         2.956966
