19
Iteration:   621
 O         0.559063        -0.173050         0.547479
 C        -0.760586         0.202848         0.897343
 C        -2.075489         0.862820         0.105105
 C        -2.452527         0.963547         1.601107
 C        -1.025334         1.438744         1.914534
 C        -3.951610         0.854428         1.925406
 O        -4.235767        -0.455356         1.527525
 C        -3.026962        -1.366092         1.272787
 C        -1.882048        -0.529270         1.679884
 H         0.823605         0.594724        -0.023099
 H        -1.786083         1.768533        -0.452472
 H        -2.633054         0.193463        -0.686729
 H        -0.862016         2.589119         1.595328
 H        -0.831077         1.163449         2.913184
 H        -4.268718         0.994607         2.931497
 H        -4.476701         1.640236         1.305910
 H        -3.205306        -2.118650         2.050676
 H        -2.997950        -1.892084         0.330674
 H        -1.503364        -0.720820         2.685466
