19
Iteration:  4080charge 0 multiplicity 1
 O         0.439171        -0.191577         0.577038
 C        -0.788312         0.288533         0.939150
 C        -1.893247         0.704387        -0.085052
 C        -2.466149         0.979433         1.284360
 C        -1.131368         1.692483         1.667638
 C        -3.908056         0.826986         1.863736
 O        -4.162473        -0.675423         1.947725
 C        -3.061800        -1.403007         1.398804
 C        -1.892062        -0.362209         1.760039
 H         0.905645         0.652020         0.126363
 H        -1.670453         1.626843        -0.579343
 H        -2.402458        -0.067727        -0.750286
 H        -0.702314         2.543464         1.172653
 H        -1.076787         1.700905         2.753476
 H        -3.869761         1.199166         2.943209
 H        -4.737492         1.334498         1.398841
 H        -2.990063        -2.336301         1.992909
 H        -3.093545        -1.803325         0.342186
 H        -1.763710        -0.419504         2.873532
