19
Iteration:  3189
 O         0.559594        -0.113936         0.538886
 C        -0.768728         0.263000         0.864498
 C        -1.966871         0.751833        -0.068277
 C        -2.441674         0.989982         1.386776
 C        -0.993988         1.590193         1.679687
 C        -3.933749         0.779251         1.846064
 O        -4.262967        -0.610515         1.791555
 C        -3.089740        -1.411370         1.530542
 C        -1.928346        -0.445494         1.828807
 H         0.912633         0.708675         0.209646
 H        -1.671994         1.736515        -0.559647
 H        -2.487939         0.096805        -0.677258
 H        -0.907742         2.604176         1.292927
 H        -0.624726         1.612697         2.664726
 H        -4.146123         1.063179         2.920985
 H        -4.621916         1.335958         1.174455
 H        -3.307522        -2.325679         2.059298
 H        -3.196426        -1.666566         0.499414
 H        -1.878796        -0.505491         2.920567
