19
Iteration:   303charge 0 multiplicity 1
 O         0.358800        -0.251537         0.578214
 C        -0.808212         0.368076         0.908665
 C        -1.955386         0.753742         0.050372
 C        -2.451591         0.929805         1.506456
 C        -1.147929         1.621641         1.835773
 C        -3.768213         0.816343         1.964586
 O        -4.210750        -0.534877         1.435221
 C        -3.026976        -1.361338         1.411406
 C        -1.826923        -0.450876         1.777974
 H         0.657727         0.181629        -0.225951
 H        -2.006158         1.726779        -0.685670
 H        -2.316918        -0.146727        -0.462982
 H        -0.844199         2.598455         1.462341
 H        -0.813326         1.439958         2.881437
 H        -3.820909         0.807560         3.024778
 H        -4.458519         1.582063         1.582343
 H        -3.119061        -2.183220         2.200642
 H        -3.007240        -1.794241         0.334213
 H        -1.486366        -0.474981         2.812803
