19
Iteration:   229
 O         0.350574        -0.196103         0.384105
 C        -0.779464         0.301465         0.955438
 C        -1.953936         0.775888         0.022297
 C        -2.456979         0.927443         1.473403
 C        -1.182459         1.532164         1.897865
 C        -3.871007         0.855765         1.849732
 O        -4.088539        -0.495473         1.525451
 C        -3.011497        -1.368956         1.479609
 C        -1.877022        -0.488345         1.854248
 H         1.086628         0.154080         0.705641
 H        -1.861060         1.720141        -0.465010
 H        -2.380162        -0.012214        -0.585505
 H        -0.929551         2.522374         1.395216
 H        -0.952506         1.581250         2.952680
 H        -4.035431         1.070505         2.981006
 H        -4.582265         1.419191         1.242187
 H        -3.184925        -2.232904         2.080385
 H        -2.916754        -1.777966         0.456997
 H        -1.515005        -0.520841         2.887431
