19
Iteration:  2231
 O         0.402738        -0.156994         0.459864
 C        -0.819875         0.314352         0.921439
 C        -1.876466         0.940078         0.017664
 C        -2.432913         0.887733         1.541742
 C        -1.093601         1.505041         1.984592
 C        -3.878217         0.825082         1.845814
 O        -4.223349        -0.565499         1.761877
 C        -3.025477        -1.327973         1.189458
 C        -1.837819        -0.516581         1.670495
 H         0.673429        -0.854826         1.146402
 H        -1.821205         2.020148        -0.228702
 H        -2.397102         0.347302        -0.701311
 H        -0.829897         2.463701         1.574806
 H        -0.856256         1.173359         3.008450
 H        -4.338846         1.252660         2.762281
 H        -4.303564         1.473658         1.031231
 H        -3.158216        -2.398347         1.531652
 H        -3.355422        -1.382659         0.129817
 H        -1.573923        -0.780560         2.747286
