19
Iteration:  4414charge 0 multiplicity 1
 O         0.498319        -0.107407         0.504891
 C        -0.802690         0.364103         0.887926
 C        -2.097949         0.562148         0.011152
 C        -2.429714         0.889750         1.541506
 C        -1.135284         1.631931         1.667659
 C        -3.884521         0.802511         2.013160
 O        -4.251642        -0.443992         1.452591
 C        -3.024105        -1.377086         1.532364
 C        -1.768266        -0.463659         1.800037
 H         1.038596         0.463830         1.030578
 H        -2.103280         1.277944        -0.803942
 H        -2.400632        -0.460295        -0.433542
 H        -0.797502         2.485656         1.017527
 H        -0.772417         1.523473         2.765928
 H        -3.917822         0.921317         3.085276
 H        -4.545784         1.572127         1.450420
 H        -3.023868        -2.184295         2.361682
 H        -3.045734        -1.971286         0.566474
 H        -1.337667        -0.431774         2.788721
