19
Iteration:  1529
 O         0.543487        -0.090059         0.519659
 C        -0.793149         0.239815         0.935078
 C        -1.897736         0.889131         0.012536
 C        -2.435666         0.955467         1.494729
 C        -0.942859         1.461657         1.966982
 C        -3.928066         0.786845         1.976442
 O        -4.300493        -0.538959         1.556181
 C        -3.148086        -1.360351         1.275996
 C        -1.951889        -0.565931         1.706509
 H         0.741068         0.580858        -0.155709
 H        -1.693111         1.842135        -0.490983
 H        -2.336156         0.115246        -0.593475
 H        -0.631434         2.398373         1.408349
 H        -0.794089         1.657337         3.089788
 H        -3.768083         0.831337         3.038809
 H        -4.715488         1.502985         1.723397
 H        -3.233663        -2.254112         1.960163
 H        -3.178384        -1.593407         0.231461
 H        -1.775447        -0.615456         2.757774
