19
Iteration:  3290
 O         0.371741        -0.161068         0.464219
 C        -0.903992         0.321984         0.876469
 C        -2.072707         0.852887         0.064184
 C        -2.445176         0.975837         1.551823
 C        -0.983489         1.591592         1.760029
 C        -3.888493         0.794796         1.753843
 O        -4.123658        -0.632282         1.488406
 C        -2.892040        -1.414683         1.688861
 C        -1.877023        -0.370899         1.876396
 H         0.314235        -0.724963        -0.221961
 H        -1.903672         1.766055        -0.560837
 H        -2.834897         0.138086        -0.444645
 H        -0.761709         2.456750         1.135253
 H        -0.465875         1.438225         2.700720
 H        -4.333121         1.140317         2.747882
 H        -4.482634         1.260198         0.967890
 H        -3.059434        -2.138758         2.518152
 H        -2.827488        -1.938524         0.711620
 H        -1.522461        -0.433226         2.948403
