19
Iteration:  1469charge 0 multiplicity 1
 O         0.375677        -0.151176         0.415067
 C        -0.858133         0.358467         0.884320
 C        -2.036797         0.933985         0.195523
 C        -2.418745         0.939126         1.722162
 C        -0.912762         1.443463         1.968019
 C        -3.884355         0.809390         1.873044
 O        -4.184799        -0.464316         1.219065
 C        -2.984540        -1.443328         1.396628
 C        -1.868931        -0.444159         1.858846
 H         0.192980        -1.148317         0.033426
 H        -1.954129         1.913763        -0.336090
 H        -2.587941         0.233714        -0.454313
 H        -0.803280         2.458694         1.683621
 H        -0.561683         1.254667         2.962726
 H        -4.145706         0.626878         2.963421
 H        -4.646470         1.470604         1.422560
 H        -3.254204        -2.186888         2.109307
 H        -2.868111        -1.936507         0.375527
 H        -1.516077        -0.703772         2.902030
