19
Iteration:  4565charge 0 multiplicity 1
 O         0.528785         0.063386         0.566897
 C        -0.799057         0.241319         0.872495
 C        -1.945207         0.775510        -0.178682
 C        -2.457104         0.890439         1.263147
 C        -1.179448         1.509427         1.735452
 C        -3.825668         0.865047         1.905081
 O        -4.210772        -0.514626         1.847088
 C        -3.141020        -1.428966         1.504874
 C        -1.870549        -0.648070         1.720082
 H         1.099324         0.318626         1.436198
 H        -1.422968         1.656604        -0.571933
 H        -2.384542         0.028562        -0.946485
 H        -0.930720         2.513456         1.430114
 H        -0.902102         1.367409         2.793153
 H        -3.671418         1.275184         2.945037
 H        -4.597437         1.586243         1.424117
 H        -3.188025        -2.185388         2.249403
 H        -3.428406        -1.804612         0.491622
 H        -1.712182        -0.706516         2.854910
