19
Iteration:   127
 O         0.347871        -0.221122         0.415228
 C        -0.805799         0.304726         1.007354
 C        -1.869582         0.848905         0.034341
 C        -2.451922         1.009609         1.512771
 C        -0.939566         1.667967         1.839347
 C        -3.990061         0.744753         1.746814
 O        -4.223522        -0.630336         1.781176
 C        -2.956647        -1.403081         1.320539
 C        -1.934779        -0.362959         1.789182
 H         0.652225        -1.079581         0.942025
 H        -1.556101         1.717179        -0.718084
 H        -2.402127         0.108526        -0.624895
 H        -0.715013         2.508534         1.224792
 H        -0.760417         1.953121         2.942126
 H        -4.458561         1.237737         2.759557
 H        -4.483692         1.209258         0.842288
 H        -2.907306        -2.236895         2.041922
 H        -3.056086        -1.715988         0.219946
 H        -1.591071        -0.511334         2.831352
