19
Iteration:  1894
 O         0.428932        -0.246451         0.514097
 C        -0.803262         0.301760         0.920071
 C        -1.903793         1.035961         0.085339
 C        -2.455036         1.040178         1.471563
 C        -1.025174         1.440235         1.968553
 C        -3.961976         0.815543         1.731550
 O        -4.142157        -0.641712         1.803540
 C        -3.109778        -1.365096         1.254160
 C        -1.916682        -0.493992         1.682814
 H         1.003152         0.453691         0.149264
 H        -1.607607         2.088490        -0.335199
 H        -2.423001         0.443713        -0.698759
 H        -0.531635         2.375926         1.669160
 H        -0.652835         0.968175         2.950475
 H        -4.300459         1.073960         2.764279
 H        -4.691054         1.267297         0.960492
 H        -3.199629        -2.393479         1.761448
 H        -3.020636        -1.526515         0.158283
 H        -1.723612        -0.557054         2.781341
