19
Iteration:  1739
 O         0.351028        -0.294238         0.399287
 C        -0.888404         0.262735         0.946178
 C        -2.063414         0.911101         0.160610
 C        -2.418801         1.013990         1.615479
 C        -0.990401         1.549512         1.931401
 C        -3.960756         0.775794         1.937884
 O        -4.095374        -0.528478         1.291108
 C        -3.005991        -1.311162         1.372516
 C        -1.829923        -0.463215         1.862225
 H         0.972354         0.489610         0.000621
 H        -1.866877         1.781979        -0.467721
 H        -2.681476         0.156640        -0.428867
 H        -0.489077         2.346256         1.573664
 H        -0.643511         1.368498         2.995059
 H        -4.173390         0.638304         3.011154
 H        -4.663452         1.520473         1.470825
 H        -3.076564        -2.168299         2.175381
 H        -2.738520        -1.792524         0.420531
 H        -1.507425        -0.758605         2.879422
