19
Iteration:  1792
 O         0.502235        -0.304579         0.485032
 C        -0.793327         0.337654         0.898392
 C        -2.012150         0.913208         0.131064
 C        -2.467776         0.891966         1.584842
 C        -1.155992         1.541168         1.992482
 C        -3.869202         0.869272         1.951347
 O        -4.233317        -0.489941         1.443168
 C        -3.024118        -1.430538         1.325456
 C        -1.804851        -0.440772         1.667016
 H         0.746466         0.252354        -0.397862
 H        -1.823512         1.861626        -0.373757
 H        -2.567122         0.094892        -0.449425
 H        -1.072897         2.571429         1.655559
 H        -0.740836         1.314405         3.030748
 H        -4.004005         0.976561         3.053130
 H        -4.534388         1.618749         1.425970
 H        -2.897624        -2.213238         2.104171
 H        -3.160375        -1.958711         0.414615
 H        -1.384928        -0.706483         2.677357
