19
Iteration:  3450charge 0 multiplicity 1
 O         0.480075        -0.152600         0.449918
 C        -0.776023         0.355363         0.856730
 C        -1.993777         0.796096         0.006949
 C        -2.466882         0.928387         1.463686
 C        -1.101039         1.568767         1.877215
 C        -3.937725         0.851417         1.668579
 O        -4.146742        -0.614647         1.938164
 C        -3.003767        -1.354557         1.408744
 C        -1.878984        -0.443993         1.674728
 H         0.722928        -0.953878         1.003950
 H        -1.870484         1.820844        -0.428867
 H        -2.539277         0.139331        -0.560430
 H        -0.973403         2.631238         1.531020
 H        -0.770162         1.355878         2.885286
 H        -4.396241         1.380855         2.503484
 H        -4.416624         1.241818         0.709613
 H        -3.087587        -2.164841         2.173169
 H        -3.212833        -1.775105         0.416006
 H        -1.551241        -0.530112         2.685176
