19
Iteration:  4460
 O         0.365289        -0.177223         0.288368
 C        -0.796421         0.323965         0.984828
 C        -1.941685         0.778882         0.013095
 C        -2.500089         1.011930         1.445023
 C        -0.937272         1.636179         1.809962
 C        -4.016275         0.783305         1.821518
 O        -4.199391        -0.665800         1.475399
 C        -2.910531        -1.388753         1.664333
 C        -1.884043        -0.334043         1.903826
 H         0.696397        -0.776678         0.863639
 H        -1.819424         1.744897        -0.483492
 H        -2.516919         0.090006        -0.596085
 H        -0.889420         2.685644         1.375286
 H        -0.630160         1.559857         2.889269
 H        -4.142243         0.925821         2.883220
 H        -4.660064         1.352120         1.170777
 H        -3.162636        -1.848236         2.681613
 H        -2.887491        -2.265883         0.972985
 H        -1.473367        -0.429283         2.897281
