19
Iteration:  2678
 O         0.352669        -0.200508         0.481076
 C        -0.847129         0.325979         0.946602
 C        -2.006485         0.848844         0.128533
 C        -2.426158         0.951775         1.537440
 C        -1.078963         1.545715         1.845846
 C        -3.910408         0.793798         1.893685
 O        -4.091263        -0.561113         1.404503
 C        -2.944778        -1.390865         1.474701
 C        -1.858756        -0.410890         1.793091
 H         0.122831        -0.658916        -0.244280
 H        -1.655849         1.894306        -0.258976
 H        -2.608988         0.340978        -0.722600
 H        -0.934270         2.581939         1.473002
 H        -0.668731         1.430897         2.958346
 H        -4.100183         0.924406         3.001126
 H        -4.579777         1.388024         1.256797
 H        -3.021347        -2.137009         2.272455
 H        -2.810213        -1.753510         0.388068
 H        -1.715740        -0.512004         2.867332
