19
Iteration:  4809charge 0 multiplicity 1
 O         0.334465        -0.300869         0.476516
 C        -0.817697         0.341870         0.962781
 C        -1.994462         0.776056         0.079156
 C        -2.420197         0.960725         1.542913
 C        -1.157617         1.781547         1.744947
 C        -3.857161         0.804997         1.947832
 O        -4.075445        -0.563726         1.542094
 C        -2.990917        -1.406478         1.310375
 C        -1.852947        -0.439287         1.798761
 H         0.875813        -0.806259         1.111008
 H        -1.787224         1.749000        -0.496591
 H        -2.572431         0.000900        -0.410165
 H        -1.197424         2.671315         1.088250
 H        -0.845856         2.102091         2.756570
 H        -4.151296         0.865092         2.989252
 H        -4.575327         1.521071         1.408305
 H        -3.011899        -2.237842         2.062653
 H        -2.900671        -1.889553         0.283763
 H        -1.549763        -0.690036         2.864620
