19
Iteration:  3176
 O         0.464131        -0.125515         0.498111
 C        -0.807428         0.296555         0.925722
 C        -1.869367         0.760086        -0.074700
 C        -2.505061         0.875412         1.390399
 C        -1.123033         1.548634         1.773028
 C        -3.938873         0.882630         1.798716
 O        -4.261570        -0.564330         1.858817
 C        -3.024589        -1.406095         1.452813
 C        -1.847320        -0.473936         1.821636
 H         0.988149         0.686600         0.074168
 H        -1.711907         1.611313        -0.677736
 H        -2.241042        -0.008933        -0.727195
 H        -0.758457         2.367230         1.127514
 H        -0.818561         1.590102         2.852414
 H        -4.019772         1.404636         2.765294
 H        -4.661663         1.365075         1.091680
 H        -2.958420        -2.290142         2.132265
 H        -2.983552        -1.744215         0.426694
 H        -1.360648        -0.464249         2.787002
