19
Iteration:  2950
 O         0.343313        -0.205650         0.519110
 C        -0.786823         0.382760         0.966088
 C        -2.089305         0.719844         0.023981
 C        -2.479821         1.002945         1.504632
 C        -1.048612         1.603293         1.786632
 C        -3.929404         0.821334         1.854836
 O        -4.105605        -0.629602         1.479415
 C        -2.957330        -1.343876         1.492383
 C        -1.780499        -0.390451         1.871965
 H         0.277853        -0.572399        -0.379069
 H        -1.911381         1.678811        -0.536829
 H        -2.538838        -0.020177        -0.569229
 H        -0.609845         2.578249         1.358110
 H        -0.682200         1.494966         2.833759
 H        -4.185011         0.884616         2.920917
 H        -4.527121         1.491073         1.256573
 H        -3.092197        -2.112048         2.259042
 H        -2.805837        -1.912842         0.508624
 H        -1.532036        -0.409275         2.969107
