19
Iteration:  2513charge 0 multiplicity 1
 O         0.346316        -0.281743         0.417710
 C        -0.778108         0.338030         0.950392
 C        -1.808324         0.981839         0.086986
 C        -2.472850         0.943684         1.460083
 C        -1.100178         1.507987         1.979386
 C        -3.960638         0.849478         1.822051
 O        -4.194855        -0.645929         1.771996
 C        -3.009422        -1.353995         1.241444
 C        -1.854908        -0.451094         1.701197
 H         1.239990         0.056886         0.739966
 H        -1.815240         2.010702        -0.417024
 H        -2.225644         0.372227        -0.779044
 H        -1.038912         2.506617         1.699906
 H        -0.680284         1.357121         3.009992
 H        -4.412878         1.278920         2.734416
 H        -4.580107         1.181597         0.977784
 H        -3.040528        -2.263989         1.821337
 H        -3.143109        -1.640386         0.138438
 H        -1.581945        -0.530945         2.746525
