19
Iteration:  3118
 O         0.372706        -0.290300         0.625456
 C        -0.809824         0.389395         0.886995
 C        -1.814606         0.957367        -0.071379
 C        -2.563699         0.946596         1.383738
 C        -1.005771         1.561060         1.687876
 C        -4.059687         0.696456         1.767966
 O        -4.130990        -0.656810         1.974563
 C        -2.986104        -1.326854         1.388241
 C        -1.861963        -0.376810         1.793195
 H         0.596171         0.093248        -0.150335
 H        -1.460658         1.821376        -0.508028
 H        -2.274800         0.223104        -0.860114
 H        -0.869508         2.614381         1.307003
 H        -0.475949         1.646948         2.708390
 H        -4.441397         1.249757         2.609901
 H        -4.639481         0.892773         0.833669
 H        -3.003678        -2.307004         1.914932
 H        -3.149955        -1.478256         0.272306
 H        -1.595186        -0.491786         2.856451
