19
Iteration:   237charge 0 multiplicity 1
 O         0.282939        -0.238552         0.397190
 C        -0.874888         0.323980         0.948503
 C        -1.934074         0.789400         0.032548
 C        -2.414298         0.912391         1.530880
 C        -1.112359         1.646160         1.915634
 C        -3.888956         0.817098         1.814439
 O        -4.137387        -0.509622         1.520101
 C        -2.987746        -1.413378         1.471751
 C        -1.787602        -0.473572         1.826419
 H         1.024315         0.187770         0.680901
 H        -1.796580         1.854362        -0.583557
 H        -2.318416         0.021086        -0.620212
 H        -0.832820         2.590856         1.530291
 H        -0.833143         1.349208         2.977488
 H        -4.217188         1.102520         2.738149
 H        -4.465066         1.445943         1.114232
 H        -3.098346        -2.109648         2.328636
 H        -3.009059        -1.830791         0.404170
 H        -1.453920        -0.583561         2.867795
