19
Iteration:  1380
 O         0.501526        -0.077905         0.486629
 C        -0.764776         0.239506         0.968159
 C        -1.919996         0.964318         0.033060
 C        -2.371977         0.937798         1.552854
 C        -0.928955         1.406549         1.895869
 C        -3.885921         0.859598         1.984375
 O        -4.342008        -0.638908         1.624138
 C        -3.189809        -1.356283         1.127817
 C        -1.981825        -0.511765         1.740977
 H         1.261896         0.459314         1.028542
 H        -1.402507         1.890602        -0.392970
 H        -2.319842         0.416197        -0.805382
 H        -0.692002         2.311530         1.549690
 H        -0.693042         1.318234         2.992290
 H        -4.090952         1.040684         3.049469
 H        -4.596070         1.478970         1.349625
 H        -3.214747        -2.362033         1.502038
 H        -3.111946        -1.551581         0.024581
 H        -1.846288        -0.728932         2.893753
