19
Iteration:  2236charge 0 multiplicity 1
 O         0.395000        -0.130655         0.468229
 C        -0.796524         0.299105         0.939643
 C        -1.895119         0.953995         0.004701
 C        -2.398247         0.869200         1.526611
 C        -1.136144         1.496035         1.975617
 C        -3.853631         0.859951         1.878509
 O        -4.248040        -0.556765         1.758128
 C        -3.031443        -1.350452         1.174201
 C        -1.861273        -0.566772         1.689751
 H         0.722632        -0.776761         1.050334
 H        -1.745377         1.987770        -0.298232
 H        -2.359742         0.350186        -0.831893
 H        -0.836605         2.496472         1.559469
 H        -0.731627         1.327346         2.999989
 H        -4.188898         1.332506         2.802669
 H        -4.341717         1.392332         1.046499
 H        -3.159092        -2.318282         1.615573
 H        -3.081794        -1.417471         0.071031
 H        -1.628550        -0.821949         2.700767
