19
Iteration:   996
 O         0.444549        -0.206933         0.445048
 C        -0.752027         0.273246         0.965869
 C        -1.822510         0.936265         0.087008
 C        -2.447619         1.029508         1.466949
 C        -0.983322         1.424501         2.000316
 C        -3.997942         0.784143         1.842206
 O        -4.253287        -0.603625         1.708257
 C        -3.077388        -1.311652         1.231970
 C        -1.937879        -0.477906         1.708287
 H         0.846817         0.574899         0.286699
 H        -1.487910         1.853560        -0.489029
 H        -2.264980         0.234926        -0.666924
 H        -0.607353         2.355458         1.688202
 H        -0.849224         1.179888         3.111789
 H        -4.258400         1.160687         2.937725
 H        -4.699955         1.317666         1.176647
 H        -3.276349        -2.278910         1.666715
 H        -3.215114        -1.339947         0.061156
 H        -1.689708        -0.707849         2.749472
