19
Iteration:  1695
 O         0.420909        -0.187939         0.543812
 C        -0.818111         0.269596         0.962769
 C        -1.947258         0.892595         0.030204
 C        -2.430001         0.964467         1.490663
 C        -1.057505         1.516885         1.929099
 C        -3.840538         0.752482         1.998897
 O        -4.196381        -0.482823         1.451475
 C        -3.111371        -1.403432         1.357390
 C        -1.840018        -0.495315         1.706549
 H         0.632824         0.391105        -0.290222
 H        -1.765880         1.894602        -0.393432
 H        -2.494458         0.268246        -0.717943
 H        -0.926071         2.467641         1.558152
 H        -0.755295         1.585784         3.013893
 H        -3.823490         0.830006         3.099892
 H        -4.610540         1.448771         1.577160
 H        -3.286541        -2.320165         2.070981
 H        -3.118140        -1.751708         0.325034
 H        -1.571464        -0.766518         2.726132
