19
Iteration:   715charge 0 multiplicity 1
 O         0.454482        -0.104008         0.608346
 C        -0.840601         0.260570         0.863425
 C        -1.896839         1.019384         0.083435
 C        -2.454287         0.978261         1.560428
 C        -0.971085         1.414029         1.901955
 C        -3.928015         0.816069         1.776108
 O        -4.209796        -0.591345         1.770472
 C        -3.121678        -1.316402         1.215237
 C        -1.852868        -0.522295         1.648537
 H         0.694424        -1.111443         0.347304
 H        -1.714349         1.981699        -0.389289
 H        -2.316614         0.428918        -0.702355
 H        -0.759340         2.358221         1.464001
 H        -0.751829         1.202837         3.034984
 H        -4.344877         1.186094         2.811256
 H        -4.601099         1.288816         1.050175
 H        -3.166994        -2.391775         1.570925
 H        -3.338385        -1.386452         0.142577
 H        -1.494840        -0.934058         2.633710
