19
Iteration:  4074charge 0 multiplicity 1
 O         0.427273        -0.242498         0.550488
 C        -0.754803         0.350809         0.906544
 C        -1.895558         0.769066        -0.089232
 C        -2.512933         0.939291         1.309441
 C        -1.190149         1.656301         1.673656
 C        -3.847345         0.817641         1.799786
 O        -4.168337        -0.659744         1.964455
 C        -2.998439        -1.383452         1.437367
 C        -1.903808        -0.395438         1.797651
 H         0.917128         0.457490         0.334397
 H        -1.679282         1.723467        -0.650198
 H        -2.463181         0.044676        -0.623385
 H        -0.857476         2.699473         1.336026
 H        -1.077340         1.701658         2.784450
 H        -3.909622         1.374718         2.726924
 H        -4.734203         1.268681         1.274894
 H        -3.046410        -2.372081         1.921632
 H        -3.086102        -1.729700         0.392992
 H        -1.634820        -0.507982         2.853788
