19
Iteration:  4812charge 0 multiplicity 1
 O         0.341940        -0.272113         0.480679
 C        -0.802907         0.310807         0.960341
 C        -1.990811         0.764828         0.078138
 C        -2.432651         0.929512         1.546460
 C        -1.173085         1.794114         1.735145
 C        -3.850546         0.822945         1.933601
 O        -4.068470        -0.549854         1.550532
 C        -2.959764        -1.397170         1.301963
 C        -1.890938        -0.452611         1.809136
 H         0.709006        -0.850274         1.101553
 H        -1.867205         1.619477        -0.445780
 H        -2.576433        -0.029003        -0.396090
 H        -1.163333         2.677346         1.084601
 H        -0.723303         2.063536         2.733688
 H        -4.126527         0.878204         3.011217
 H        -4.589397         1.502085         1.518149
 H        -3.029777        -2.239838         2.007813
 H        -2.857251        -1.721151         0.302724
 H        -1.605603        -0.731162         2.801686
