19
Iteration:  4020charge 0 multiplicity 1
 O         0.367324        -0.189998         0.458715
 C        -0.759843         0.307237         0.942543
 C        -1.956387         0.828480        -0.082421
 C        -2.484472         0.940673         1.380058
 C        -0.985134         1.617601         1.764090
 C        -3.935860         0.765911         1.647985
 O        -4.156137        -0.676304         1.973921
 C        -3.016216        -1.397329         1.505691
 C        -1.889836        -0.384477         1.856000
 H         0.802057         0.555147         0.333435
 H        -1.843807         1.848349        -0.572027
 H        -2.349554         0.147933        -0.818247
 H        -0.602363         2.477558         1.115651
 H        -0.709718         1.726736         2.831712
 H        -4.415301         1.272154         2.462013
 H        -4.401964         0.873639         0.621428
 H        -3.138264        -2.269713         2.141585
 H        -3.097135        -1.507166         0.430021
 H        -1.954432        -0.127621         2.982660
