19
Iteration:  4889charge 0 multiplicity 1
 O         0.521845        -0.060493         0.491905
 C        -0.801712         0.336971         0.828176
 C        -1.848208         0.839903        -0.037595
 C        -2.504768         0.811615         1.400788
 C        -1.127029         1.453485         1.890658
 C        -3.915240         0.810001         1.769243
 O        -4.307485        -0.510251         1.678944
 C        -3.056290        -1.341691         1.629235
 C        -1.807536        -0.551733         1.779805
 H         0.672810         0.219086        -0.508232
 H        -1.828327         1.835601        -0.319069
 H        -2.166270         0.229464        -0.912404
 H        -0.932075         2.462840         1.483875
 H        -0.731233         1.351224         2.928149
 H        -4.078567         1.106853         2.851946
 H        -4.616654         1.295029         1.095749
 H        -3.118710        -1.943763         2.554338
 H        -3.164758        -1.983277         0.807330
 H        -1.403429        -0.459813         2.766263
