19
Iteration:  3005
 O         0.335469        -0.213390         0.499458
 C        -0.821297         0.326360         0.823466
 C        -2.032252         0.725378         0.019182
 C        -2.419388         0.900101         1.493937
 C        -1.133282         1.623996         1.838823
 C        -3.860540         0.753748         1.847555
 O        -4.205756        -0.510852         1.468571
 C        -2.914648        -1.358218         1.620847
 C        -1.782182        -0.430214         1.791112
 H         1.180783         0.405715         0.493481
 H        -2.059547         1.687667        -0.625902
 H        -2.481977        -0.065351        -0.467093
 H        -1.193077         2.582998         1.179151
 H        -0.792158         1.801464         2.847654
 H        -3.906953         0.838353         2.971961
 H        -4.450917         1.534853         1.417436
 H        -3.091838        -1.951944         2.515550
 H        -2.939186        -2.041325         0.700154
 H        -1.446892        -0.418554         2.854293
