19
Iteration:  4073charge 0 multiplicity 1
 O         0.425324        -0.251855         0.547245
 C        -0.756334         0.358880         0.901549
 C        -1.895739         0.782250        -0.091276
 C        -2.518840         0.934230         1.312836
 C        -1.197718         1.651596         1.680107
 C        -3.844698         0.816984         1.789984
 O        -4.168495        -0.654645         1.965535
 C        -2.987636        -1.381809         1.447056
 C        -1.901700        -0.403276         1.804404
 H         0.969672         0.454444         0.350296
 H        -1.694075         1.707774        -0.655073
 H        -2.470392         0.039002        -0.634024
 H        -0.906570         2.700001         1.348760
 H        -1.059647         1.694253         2.784977
 H        -3.914067         1.391492         2.723893
 H        -4.712541         1.243141         1.239366
 H        -3.040879        -2.355613         1.925990
 H        -3.094278        -1.692447         0.369223
 H        -1.619478        -0.509306         2.819873
