19
Iteration:   406charge 0 multiplicity 1
 O         0.348247        -0.212533         0.411040
 C        -0.794656         0.320595         0.951751
 C        -1.860078         0.959106         0.057271
 C        -2.440163         1.065953         1.453239
 C        -1.027081         1.586048         1.903312
 C        -3.911111         0.820158         1.754653
 O        -4.221366        -0.636158         1.794715
 C        -3.062564        -1.421479         1.303699
 C        -1.873945        -0.526524         1.790334
 H         0.930017        -0.615058         1.275452
 H        -1.562441         1.847003        -0.495229
 H        -2.226411         0.234216        -0.763828
 H        -0.722948         2.553736         1.501004
 H        -0.883955         1.452019         2.997758
 H        -4.276698         1.177126         2.648025
 H        -4.515825         1.174544         0.951191
 H        -3.082389        -2.461319         1.628472
 H        -3.188452        -1.428562         0.159201
 H        -1.536087        -0.714811         2.840583
