19
Iteration:  2670
 O         0.343858        -0.200706         0.444602
 C        -0.809866         0.326756         0.959448
 C        -2.022661         0.860956         0.064384
 C        -2.424744         0.979114         1.573856
 C        -1.045623         1.573818         1.912457
 C        -3.883931         0.733559         1.859612
 O        -4.128763        -0.563637         1.406547
 C        -2.970851        -1.323994         1.439493
 C        -1.830852        -0.427520         1.855111
 H         0.063609        -0.955666        -0.019877
 H        -2.090296         1.938111        -0.243334
 H        -2.465060         0.174435        -0.660784
 H        -0.893218         2.562012         1.444423
 H        -0.676787         1.573147         2.861777
 H        -4.208984         0.914555         2.880046
 H        -4.569997         1.316977         1.214086
 H        -3.067633        -2.196355         2.124311
 H        -2.859384        -1.895751         0.531650
 H        -1.472150        -0.584247         2.875650
