19
Iteration:  2283charge 0 multiplicity 1
 O         0.531230        -0.061443         0.444177
 C        -0.790831         0.383654         0.870218
 C        -1.884985         0.810706        -0.043251
 C        -2.457800         0.888058         1.543966
 C        -0.957905         1.409900         1.972677
 C        -3.929460         0.855674         2.010654
 O        -4.361105        -0.531464         1.521033
 C        -3.102168        -1.354563         1.316493
 C        -1.906518        -0.527306         1.703261
 H         0.999010         0.170048         1.197242
 H        -1.673532         1.662621        -0.834758
 H        -2.397618         0.011968        -0.566676
 H        -0.906087         2.468238         1.814585
 H        -0.579609         1.133925         3.132532
 H        -3.827331         0.709182         3.126468
 H        -4.585525         1.700913         1.823189
 H        -3.256475        -2.167089         2.027293
 H        -3.271534        -1.665217         0.265678
 H        -1.537144        -0.841388         2.671643
