19
Iteration:   971
 O         0.419834        -0.244623         0.555148
 C        -0.786290         0.377178         0.883246
 C        -1.990022         0.971037         0.041079
 C        -2.392360         0.899076         1.565959
 C        -1.016635         1.446462         1.946586
 C        -3.871903         0.883317         1.849147
 O        -4.244727        -0.573495         1.668978
 C        -3.044839        -1.352300         1.195878
 C        -1.901347        -0.543019         1.691312
 H         1.051214         0.360095         0.919285
 H        -1.860904         1.909370        -0.550556
 H        -2.460437         0.277764        -0.621456
 H        -0.960081         2.582072         1.706898
 H        -0.617913         1.136601         2.895394
 H        -4.119945         1.158286         2.906008
 H        -4.536083         1.557183         1.175480
 H        -3.219715        -2.365590         1.716878
 H        -3.197970        -1.541279         0.100678
 H        -1.506118        -0.885902         2.691596
