19
Iteration:  1155
 O         0.312965        -0.193296         0.349809
 C        -0.817967         0.263118         0.978314
 C        -1.898111         0.889434         0.173785
 C        -2.440983         0.941031         1.647707
 C        -0.927672         1.479405         2.004592
 C        -3.965780         0.791769         1.905600
 O        -4.217890        -0.501801         1.294444
 C        -3.023911        -1.307273         1.328352
 C        -1.856041        -0.494146         1.790621
 H         1.181173         0.243794         0.818797
 H        -1.708049         1.892685        -0.259818
 H        -2.447874         0.262254        -0.483753
 H        -0.768439         2.565144         1.706609
 H        -0.573068         1.296229         2.957214
 H        -4.170763         0.721018         3.010096
 H        -4.697241         1.538562         1.501371
 H        -3.330712        -2.162613         2.016304
 H        -3.058231        -1.793312         0.332894
 H        -1.453457        -0.916896         2.730895
