19
Iteration:   661
 O         0.493742        -0.193968         0.532345
 C        -0.756751         0.296692         0.978882
 C        -1.745572         0.910759        -0.054344
 C        -2.476349         0.887714         1.469754
 C        -1.161362         1.531576         1.961886
 C        -3.920840         0.835208         1.957414
 O        -4.280725        -0.528516         1.724740
 C        -3.076176        -1.348705         1.174840
 C        -1.881696        -0.515116         1.703338
 H         0.436622        -0.173556        -0.518704
 H        -1.398213         1.892392        -0.294927
 H        -2.182426         0.288148        -0.806246
 H        -1.051014         2.512256         1.643729
 H        -0.873094         1.332338         3.025665
 H        -3.939348         1.058988         3.078102
 H        -4.642221         1.432784         1.375622
 H        -3.105855        -2.305603         1.804790
 H        -3.314976        -1.537120         0.100653
 H        -1.776278        -0.833575         2.787143
