19
Iteration:  2176
 O         0.363850        -0.210847         0.396885
 C        -0.824007         0.311506         0.954594
 C        -1.774236         1.016089         0.019680
 C        -2.439115         0.950976         1.444878
 C        -1.164345         1.502255         2.055198
 C        -3.958765         0.817196         1.805810
 O        -4.148949        -0.623027         1.788307
 C        -3.086376        -1.305871         1.225736
 C        -1.816066        -0.549606         1.683665
 H         0.882553        -0.631545         1.092340
 H        -1.641082         2.102453        -0.267292
 H        -2.299323         0.468799        -0.707798
 H        -0.897090         2.522482         1.804894
 H        -0.501533         1.282754         2.936330
 H        -4.138911         1.232352         2.839986
 H        -4.579041         1.216692         0.974477
 H        -3.299618        -2.261788         1.811803
 H        -3.241136        -1.392848         0.090012
 H        -1.635280        -0.825054         2.788574
