19
Iteration:  1730
 O         0.364115        -0.342685         0.430391
 C        -0.811426         0.315471         0.900269
 C        -2.067121         0.890673         0.102659
 C        -2.467019         0.933403         1.670582
 C        -1.009639         1.572722         1.978517
 C        -3.930406         0.744119         1.940767
 O        -4.160645        -0.450697         1.294103
 C        -2.963969        -1.349262         1.406020
 C        -1.782074        -0.455123         1.802060
 H         0.848175         0.552803         0.039729
 H        -1.910449         1.857570        -0.399499
 H        -2.672544         0.107309        -0.460593
 H        -0.828826         2.589269         1.528466
 H        -0.622746         1.319607         3.047703
 H        -4.173773         0.769080         3.009002
 H        -4.637969         1.423716         1.399801
 H        -3.231195        -2.213986         2.113824
 H        -3.057451        -1.737397         0.358536
 H        -1.254687        -0.517518         2.754718
