19
Iteration:  1248charge 0 multiplicity 1
 O         0.479691        -0.115174         0.448282
 C        -0.808183         0.298560         0.950796
 C        -1.898172         0.932320         0.005741
 C        -2.445520         0.905974         1.511339
 C        -1.128563         1.445099         2.050043
 C        -3.908575         0.873302         1.951910
 O        -4.255546        -0.475075         1.579729
 C        -3.039790        -1.371787         1.221834
 C        -1.844325        -0.576616         1.671559
 H         0.815392        -0.829823         0.876508
 H        -1.718249         1.921318        -0.441732
 H        -2.522939         0.196964        -0.566262
 H        -1.003766         2.505711         1.761010
 H        -0.830013         1.164995         3.186469
 H        -4.080233         1.060070         2.984376
 H        -4.511274         1.570693         1.393280
 H        -3.070620        -2.362474         1.775656
 H        -2.969115        -1.639313         0.137097
 H        -1.484609        -0.932450         2.682555
