19
Iteration:  3469
 O         0.512754        -0.108062         0.504102
 C        -0.833676         0.319799         0.863818
 C        -1.960126         0.817326        -0.050458
 C        -2.450486         0.926709         1.442820
 C        -1.125819         1.594941         1.791428
 C        -3.894747         0.875573         1.798832
 O        -4.183533        -0.535306         1.891385
 C        -3.100956        -1.450605         1.399942
 C        -1.842273        -0.558448         1.716276
 H         1.001407        -0.129425         1.301762
 H        -1.822661         1.775728        -0.731251
 H        -2.485280        -0.000342        -0.611642
 H        -0.742633         2.500161         1.268130
 H        -0.798069         1.599418         2.831716
 H        -4.270484         1.248420         2.786690
 H        -4.643418         1.173755         1.055438
 H        -3.068812        -2.422645         1.869890
 H        -3.241999        -1.636616         0.287108
 H        -1.363253        -0.829370         2.671204
