19
Iteration:   183charge 0 multiplicity 1
 O         0.525946        -0.042804         0.591668
 C        -0.789158         0.363904         0.882603
 C        -1.950952         0.739014        -0.053798
 C        -2.484665         0.870968         1.455894
 C        -1.059802         1.566866         1.711521
 C        -3.853166         0.888333         2.006332
 O        -4.240310        -0.534259         1.626024
 C        -3.154057        -1.402973         1.397647
 C        -1.872419        -0.554998         1.695371
 H         0.714712        -0.513588         1.306990
 H        -1.677115         1.663466        -0.725387
 H        -2.373359        -0.099550        -0.543767
 H        -1.060424         2.522239         1.216667
 H        -0.521582         1.630517         2.723455
 H        -3.789356         1.044890         3.173599
 H        -4.640322         1.524648         1.558962
 H        -3.167909        -2.204023         2.114968
 H        -3.270122        -1.989259         0.419224
 H        -1.480580        -0.707121         2.722748
