19
Iteration:  1278charge 0 multiplicity 1
 O         0.453563        -0.132180         0.470020
 C        -0.797030         0.313878         0.984400
 C        -1.852668         0.992821         0.044218
 C        -2.460085         0.945091         1.487082
 C        -1.020419         1.483641         2.011616
 C        -3.908816         0.790730         1.842560
 O        -4.213311        -0.619120         1.745539
 C        -3.151030        -1.278065         1.128555
 C        -1.900781        -0.557924         1.708207
 H         0.923589        -0.925948         0.873461
 H        -1.674811         1.958894        -0.416300
 H        -2.471855         0.323637        -0.599355
 H        -0.777793         2.401708         1.647659
 H        -0.827114         1.259787         3.025301
 H        -4.240576         1.162906         2.862556
 H        -4.503114         1.295498         1.015217
 H        -3.132769        -2.356774         1.479677
 H        -3.125864        -1.166302         0.061079
 H        -1.589884        -0.925752         2.728523
