19
Iteration:   782charge 0 multiplicity 1
 O         0.513266        -0.073695         0.538804
 C        -0.810161         0.243733         0.927224
 C        -1.986100         0.955985         0.079724
 C        -2.418478         0.921798         1.506296
 C        -0.998466         1.424414         1.878139
 C        -3.845053         0.861667         1.954536
 O        -4.241577        -0.545840         1.563346
 C        -3.093965        -1.387998         1.205745
 C        -1.952793        -0.471870         1.744647
 H         0.632398        -0.939345         0.825835
 H        -1.975844         1.951839        -0.318126
 H        -2.446450         0.251073        -0.657674
 H        -0.846144         2.366503         1.386018
 H        -0.716460         1.247149         2.917779
 H        -3.949626         1.009054         3.099844
 H        -4.562211         1.562898         1.441279
 H        -3.206727        -2.389657         1.755200
 H        -2.998303        -1.679111         0.145523
 H        -1.680766        -0.746959         2.813755
