19
Iteration:  1506charge 0 multiplicity 1
 O         0.435517        -0.126538         0.477144
 C        -0.786006         0.309698         0.899523
 C        -1.888276         0.889373         0.074356
 C        -2.438242         0.894828         1.583332
 C        -1.092081         1.437179         1.952880
 C        -3.887485         0.812613         1.963201
 O        -4.283427        -0.442592         1.376772
 C        -3.042280        -1.436166         1.360877
 C        -1.854445        -0.527375         1.819869
 H         0.476533        -0.063573        -0.572685
 H        -1.678237         1.909189        -0.238798
 H        -2.359710         0.260254        -0.708477
 H        -1.023139         2.560292         1.652942
 H        -0.763192         1.322611         3.002123
 H        -3.854754         0.774052         3.035602
 H        -4.340468         1.728249         1.677850
 H        -3.255732        -2.198810         2.126681
 H        -3.030038        -1.783414         0.337386
 H        -1.407631        -0.678616         2.774445
