19
Iteration:  2651
 O         0.397660        -0.196634         0.368235
 C        -0.831311         0.382997         0.909310
 C        -1.999361         0.819602         0.131672
 C        -2.415422         0.957806         1.621292
 C        -1.006869         1.614367         1.900341
 C        -4.009229         0.850375         1.896948
 O        -4.267344        -0.582798         1.378809
 C        -2.903514        -1.428677         1.435319
 C        -1.789158        -0.435407         1.822770
 H         0.452110        -0.994416         0.747127
 H        -1.643952         1.560064        -0.521748
 H        -2.593811         0.154435        -0.393110
 H        -0.795965         2.656619         1.608266
 H        -0.619586         1.448130         2.896389
 H        -4.205047         0.930268         2.967449
 H        -4.607231         1.576620         1.323768
 H        -3.043857        -2.334284         2.085285
 H        -2.750850        -1.754558         0.428576
 H        -1.487105        -0.613432         2.883425
