19
Iteration:  2662charge 0 multiplicity 1
 O         0.366639        -0.203945         0.407822
 C        -0.818969         0.349764         0.932289
 C        -2.013833         0.903652         0.044527
 C        -2.476857         0.945976         1.616064
 C        -1.010353         1.626297         1.934227
 C        -3.910917         0.770413         1.838622
 O        -4.202053        -0.579060         1.403236
 C        -2.940331        -1.364804         1.410999
 C        -1.794104        -0.451332         1.913835
 H         0.164730        -1.164329         0.257410
 H        -2.044534         1.767588        -0.577552
 H        -2.456632         0.070359        -0.397569
 H        -0.736920         2.548384         1.416782
 H        -0.692718         1.536920         2.957175
 H        -4.190434         0.816457         2.898437
 H        -4.505856         1.500586         1.272617
 H        -3.132565        -2.126367         2.194086
 H        -2.846731        -1.826437         0.434108
 H        -1.272509        -0.662226         2.876616
