19
Iteration:   316charge 0 multiplicity 1
 O         0.504017        -0.239754         0.574384
 C        -0.746694         0.357877         0.955298
 C        -2.036635         0.693329        -0.034704
 C        -2.426230         0.892519         1.469521
 C        -1.134170         1.668145         1.872363
 C        -3.883537         0.776460         2.024143
 O        -4.209875        -0.428109         1.486901
 C        -3.053145        -1.357389         1.359697
 C        -1.830598        -0.484521         1.778233
 H         0.758164        -0.010216        -0.471555
 H        -1.878875         1.734167        -0.596244
 H        -2.516872        -0.146204        -0.671879
 H        -1.193182         2.729055         1.426122
 H        -0.901786         1.710868         2.897239
 H        -3.832410         0.807704         3.061524
 H        -4.591731         1.459104         1.627759
 H        -3.192103        -2.162636         2.081168
 H        -3.081089        -1.928281         0.369629
 H        -1.605235        -0.777364         2.806232
