19
Iteration:  4252charge 0 multiplicity 1
 O         0.434305        -0.097362         0.543466
 C        -0.848342         0.290984         0.872866
 C        -1.927657         0.742529        -0.022958
 C        -2.460534         0.905719         1.387216
 C        -1.072470         1.604825         1.694967
 C        -3.863926         0.799784         1.943763
 O        -4.284489        -0.586635         1.616967
 C        -3.037532        -1.392662         1.550621
 C        -1.828834        -0.425061         1.799946
 H         0.958817         0.698980         0.316668
 H        -1.742366         1.680637        -0.508418
 H        -2.307410        -0.085716        -0.700749
 H        -0.834626         2.598942         1.267664
 H        -0.653284         1.363685         2.705046
 H        -3.923934         0.796006         3.078529
 H        -4.598379         1.461336         1.430303
 H        -3.244660        -2.172045         2.355460
 H        -2.887204        -1.830586         0.568515
 H        -1.365688        -0.597044         2.804120
