19
Iteration:  1950charge 0 multiplicity 1
 O         0.453534        -0.136419         0.472269
 C        -0.806812         0.252326         0.967104
 C        -1.963952         0.860212         0.006986
 C        -2.435702         0.901490         1.519660
 C        -1.153061         1.491804         1.928370
 C        -3.793884         0.855194         1.897168
 O        -4.249406        -0.534249         1.744691
 C        -3.028750        -1.357119         1.151834
 C        -1.913680        -0.507281         1.682062
 H         1.018255         0.044614         1.133969
 H        -1.668149         1.878366        -0.477544
 H        -2.369689         0.223871        -0.745488
 H        -0.698001         2.495820         1.620510
 H        -0.922686         1.313289         2.960908
 H        -3.979316         1.010139         2.986509
 H        -4.430707         1.569013         1.296885
 H        -3.099296        -2.281286         1.721059
 H        -2.953486        -1.516715         0.077578
 H        -1.683984        -0.683074         2.718139
