19
Iteration:  4715charge 0 multiplicity 1
 O         0.549996         0.020325         0.379939
 C        -0.772137         0.288797         0.891209
 C        -2.043441         0.561439         0.017082
 C        -2.473794         0.927705         1.509134
 C        -1.099356         1.586938         1.783697
 C        -3.899012         0.895694         1.951505
 O        -4.217946        -0.454647         1.470999
 C        -3.041418        -1.405988         1.513994
 C        -1.841020        -0.512366         1.873899
 H         0.927447        -0.651502         1.096483
 H        -1.977540         1.355469        -0.685007
 H        -2.637400        -0.298830        -0.377132
 H        -0.974997         2.574317         1.351942
 H        -0.893177         1.631878         2.869344
 H        -3.868074         0.837549         3.076612
 H        -4.706559         1.508061         1.599596
 H        -3.295650        -2.261451         2.157981
 H        -3.010324        -1.842800         0.516310
 H        -1.495516        -0.710316         2.880872
