19
Iteration:   917charge 0 multiplicity 1
 O         0.417246        -0.112116         0.383006
 C        -0.757297         0.320311         1.021247
 C        -1.855368         0.799736         0.000303
 C        -2.430327         0.944795         1.512625
 C        -0.997657         1.494082         1.992154
 C        -3.958667         0.762563         1.999999
 O        -4.264682        -0.506143         1.468779
 C        -3.132444        -1.317924         1.300864
 C        -1.904116        -0.467001         1.732206
 H         0.989870        -0.101140         1.120374
 H        -1.637061         1.751951        -0.620481
 H        -2.221158        -0.005764        -0.615935
 H        -0.423516         2.379451         1.665737
 H        -0.706532         1.228408         2.979817
 H        -3.852187         0.692176         3.163662
 H        -4.784774         1.506414         1.699839
 H        -3.184412        -2.304125         1.876406
 H        -3.311301        -1.672417         0.207560
 H        -1.552010        -0.728700         2.771632
