19
Iteration:  1284charge 0 multiplicity 1
 O         0.489684        -0.147506         0.461567
 C        -0.754818         0.271383         0.950324
 C        -1.845185         1.011448         0.051409
 C        -2.466804         0.951340         1.494215
 C        -0.988229         1.469671         2.029416
 C        -4.004913         0.793043         1.839844
 O        -4.241329        -0.643037         1.774474
 C        -3.098065        -1.265296         1.126726
 C        -1.922215        -0.534671         1.694197
 H         0.880383        -0.800571         0.924154
 H        -1.594064         1.907481        -0.567305
 H        -2.492592         0.415962        -0.568674
 H        -0.693128         2.598057         1.678176
 H        -0.701471         1.376311         3.133564
 H        -4.257766         1.207471         2.811636
 H        -4.675354         1.191278         1.092301
 H        -3.225779        -2.284772         1.402372
 H        -3.265310        -1.215232         0.000488
 H        -1.650041        -0.825800         2.690353
