19
Iteration:  3882
 O         0.397778        -0.153025         0.291449
 C        -0.804116         0.288390         0.874010
 C        -2.105918         0.771600         0.069983
 C        -2.448884         0.943152         1.547118
 C        -1.048383         1.622370         1.760153
 C        -3.984357         0.820685         1.791795
 O        -4.154294        -0.603085         1.457391
 C        -2.919607        -1.364017         1.708765
 C        -1.789924        -0.405549         1.946804
 H         0.893526        -0.669404         1.041178
 H        -1.852497         1.702780        -0.510974
 H        -2.668670         0.046647        -0.440318
 H        -0.877713         2.570266         1.250504
 H        -0.802852         1.657558         2.821220
 H        -4.343256         0.977203         2.845763
 H        -4.466507         1.375939         0.992746
 H        -3.147817        -2.101973         2.530671
 H        -2.710690        -1.756019         0.745279
 H        -1.371543        -0.537639         2.947574
