19
Iteration:   596
 O         0.312563        -0.231288         0.466232
 C        -0.785825         0.333417         0.946171
 C        -2.013637         0.872330         0.080272
 C        -2.391679         0.871624         1.590498
 C        -1.010037         1.546826         1.931181
 C        -3.840313         0.792057         1.907714
 O        -4.235556        -0.505299         1.359176
 C        -3.056781        -1.316494         1.348093
 C        -1.828968        -0.518741         1.825203
 H         1.130233         0.475063         0.553968
 H        -1.879739         1.886532        -0.297354
 H        -2.452920         0.220539        -0.643779
 H        -1.026385         2.510448         1.539722
 H        -0.556241         1.332984         2.906609
 H        -3.933275         0.783505         2.957285
 H        -4.470018         1.578270         1.482119
 H        -3.301138        -2.127965         2.123573
 H        -2.908986        -1.835100         0.375360
 H        -1.379801        -0.729490         2.838861
