19
Iteration:  1493
 O         0.427136        -0.167987         0.451702
 C        -0.829798         0.299103         0.934427
 C        -2.007745         0.892633         0.096095
 C        -2.419353         0.866928         1.605151
 C        -1.084747         1.504267         2.083859
 C        -3.892377         0.838390         1.953840
 O        -4.217277        -0.419322         1.317258
 C        -2.982863        -1.331429         1.399357
 C        -1.771988        -0.569324         1.706486
 H         0.303349        -0.456079        -0.467188
 H        -1.935930         1.806062        -0.494084
 H        -2.557823         0.113460        -0.526132
 H        -0.722808         2.499681         1.629179
 H        -0.801252         1.319238         3.043277
 H        -4.182622         0.835082         3.030658
 H        -4.638525         1.387543         1.422621
 H        -3.165170        -2.046788         2.152761
 H        -2.972139        -1.918144         0.435427
 H        -1.479765        -0.856156         2.717442
