19
Iteration:  1121
 O         0.434916        -0.135635         0.453117
 C        -0.795375         0.289699         0.870098
 C        -1.934731         0.910641         0.056769
 C        -2.436535         0.934752         1.553119
 C        -1.012848         1.459583         2.034201
 C        -3.903077         0.873506         1.950210
 O        -4.270377        -0.516796         1.439956
 C        -3.077004        -1.368720         1.296393
 C        -1.857234        -0.542089         1.717305
 H         0.949711        -0.565412         1.133024
 H        -1.827745         1.947329        -0.295733
 H        -2.448014         0.271250        -0.662867
 H        -0.878418         2.595890         1.974591
 H        -0.781289         1.099140         2.958686
 H        -3.766224         0.858050         3.062592
 H        -4.657171         1.589111         1.588349
 H        -3.215813        -2.343982         1.913769
 H        -3.012584        -1.579623         0.188453
 H        -1.462922        -0.831059         2.701169
