19
Iteration:  2452
 O         0.546151        -0.039339         0.551905
 C        -0.762563         0.261819         0.944015
 C        -1.905316         0.811668        -0.029445
 C        -2.419750         0.875900         1.495005
 C        -1.064525         1.574097         1.985395
 C        -3.892357         0.832445         1.991587
 O        -4.313903        -0.531627         1.642537
 C        -3.167068        -1.337625         1.211764
 C        -1.804312        -0.592038         1.677258
 H         0.354761        -0.601207        -0.120987
 H        -1.770693         1.752856        -0.503451
 H        -2.442370         0.095469        -0.695868
 H        -0.965363         2.688800         1.504217
 H        -0.761064         1.569222         3.040916
 H        -4.034946         1.095559         3.054900
 H        -4.572797         1.386122         1.306859
 H        -3.316073        -2.321814         1.745003
 H        -3.093280        -1.433991         0.127188
 H        -1.584266        -0.921153         2.732725
