19
Iteration:  2046
 O         0.325861        -0.241757         0.275698
 C        -0.805638         0.301158         0.986897
 C        -2.013066         0.964133         0.157550
 C        -2.419814         1.015838         1.690330
 C        -0.911692         1.593651         1.962669
 C        -3.984521         0.815398         1.858262
 O        -4.216817        -0.579246         1.295760
 C        -2.943466        -1.404350         1.388076
 C        -1.886810        -0.528961         1.896792
 H         0.970598        -0.549606         1.016860
 H        -2.071705         2.023342        -0.281273
 H        -2.398446         0.199198        -0.435910
 H        -0.464629         2.410721         1.340724
 H        -0.452859         1.490724         2.997505
 H        -4.123706         0.722162         2.914040
 H        -4.690354         1.578814         1.467409
 H        -3.266878        -2.412836         1.867542
 H        -2.840017        -1.587318         0.317708
 H        -1.498787        -0.535871         2.951605
