19
Iteration:  3997
 O         0.495446        -0.183529         0.530025
 C        -0.767373         0.307721         0.853066
 C        -1.891792         0.694324        -0.034807
 C        -2.531510         0.995894         1.404895
 C        -1.209112         1.591648         1.756868
 C        -4.010812         0.840111         1.751643
 O        -4.223704        -0.592436         1.938419
 C        -2.960045        -1.369675         1.479315
 C        -1.781851        -0.451775         1.768418
 H         0.827423         0.485437        -0.251455
 H        -1.590015         1.538480        -0.669506
 H        -2.241996        -0.127980        -0.679878
 H        -1.009708         2.554448         1.197035
 H        -0.710627         1.612819         2.738006
 H        -4.139466         1.209853         2.759097
 H        -4.739279         1.290748         1.030383
 H        -3.046968        -2.263962         2.030195
 H        -3.096127        -1.471320         0.410415
 H        -1.438443        -0.433158         2.807198
