19
Iteration:  2073
 O         0.275743        -0.256552         0.386542
 C        -0.844886         0.299674         0.935852
 C        -1.954949         0.911123         0.099101
 C        -2.441918         0.976692         1.647869
 C        -1.070887         1.499907         1.977609
 C        -3.909539         0.833447         1.948044
 O        -4.165562        -0.532440         1.332560
 C        -2.926221        -1.352152         1.362103
 C        -1.838092        -0.463869         1.747139
 H         1.090007        -0.025139         0.946109
 H        -1.546414         1.785428        -0.383388
 H        -2.529802         0.176758        -0.583985
 H        -0.856920         2.550241         1.715393
 H        -0.642166         1.191462         2.925579
 H        -3.991531         0.689461         3.066878
 H        -4.621895         1.608496         1.670427
 H        -3.114185        -2.168134         1.998353
 H        -2.923775        -1.806492         0.372511
 H        -1.462127        -0.550698         2.740303
