19
Iteration:  1056
 O         0.491039        -0.120103         0.636346
 C        -0.783749         0.274589         0.886428
 C        -1.920757         0.948229         0.018657
 C        -2.420563         0.953778         1.534070
 C        -0.961932         1.384182         1.928128
 C        -3.964142         0.880397         1.946653
 O        -4.256997        -0.600540         1.691866
 C        -3.051062        -1.335573         1.158130
 C        -1.959433        -0.438520         1.667877
 H         0.486987        -0.738121        -0.251191
 H        -1.692789         1.962467        -0.290491
 H        -2.286742         0.267176        -0.751608
 H        -0.589223         2.475608         1.701623
 H        -0.740859         1.108172         2.916495
 H        -4.352332         1.054945         2.896810
 H        -4.678579         1.293182         1.223651
 H        -3.073675        -2.442183         1.468842
 H        -3.078835        -1.421187         0.078742
 H        -1.663423        -0.743905         2.691502
