19
Iteration:  4573
 O         0.511768         0.048734         0.560700
 C        -0.814789         0.267155         0.862206
 C        -1.915588         0.748685        -0.136783
 C        -2.444741         0.775747         1.304039
 C        -1.206758         1.480409         1.797983
 C        -3.843584         0.935143         1.845058
 O        -4.218797        -0.487930         1.861934
 C        -3.145614        -1.415047         1.535194
 C        -1.820002        -0.603491         1.625874
 H         1.117590         0.327826         1.428385
 H        -1.796628         1.756082        -0.584052
 H        -2.371177         0.024310        -0.846863
 H        -1.109377         2.483996         1.414651
 H        -0.745937         1.331897         2.760780
 H        -3.761755         1.107659         2.898505
 H        -4.461082         1.582255         1.337122
 H        -3.127125        -2.303269         2.222863
 H        -3.196786        -1.830281         0.506540
 H        -1.610203        -0.430218         2.698411
