19
Iteration:  4697
 O         0.386435        -0.016884         0.480057
 C        -0.871848         0.253267         0.969380
 C        -1.949898         0.703535        -0.039852
 C        -2.456362         0.996187         1.449556
 C        -1.026458         1.563294         1.697718
 C        -3.837229         0.731566         1.992232
 O        -4.231146        -0.580482         1.514417
 C        -3.014381        -1.348019         1.487977
 C        -1.899303        -0.412179         1.835693
 H         0.889160        -0.783379         0.975184
 H        -1.721870         1.678310        -0.634421
 H        -2.441064        -0.092323        -0.666914
 H        -0.639849         2.433122         1.153211
 H        -0.610261         1.487859         2.705243
 H        -3.822345         0.892529         3.063948
 H        -4.501818         1.528543         1.654424
 H        -3.094139        -2.048873         2.338468
 H        -2.927271        -1.852131         0.466336
 H        -1.623307        -0.246216         2.914505
