19
Iteration:  1983
 O         0.553016        -0.057479         0.460534
 C        -0.772603         0.292558         0.899677
 C        -1.905885         0.888913         0.000239
 C        -2.464430         0.921447         1.555347
 C        -1.012401         1.486440         1.888861
 C        -3.898579         0.732663         1.983427
 O        -4.317359        -0.539811         1.561753
 C        -3.157145        -1.346947         1.347996
 C        -1.936571        -0.471042         1.658842
 H         1.094444        -0.692599         1.047498
 H        -1.669782         1.927372        -0.401378
 H        -2.273028         0.140220        -0.696465
 H        -0.583825         2.432168         1.401862
 H        -0.684337         1.393904         2.894852
 H        -3.885988         0.716454         3.102384
 H        -4.588613         1.557699         1.678425
 H        -3.247868        -2.153981         2.076638
 H        -3.104974        -1.850765         0.424206
 H        -1.726613        -0.669424         2.695351
