19
Iteration:  4346
 O         0.423633        -0.343690         0.579600
 C        -0.794083         0.404521         0.854798
 C        -1.935400         0.872170        -0.070486
 C        -2.519003         0.932271         1.423757
 C        -1.182990         1.665677         1.893478
 C        -3.933448         0.776379         1.703048
 O        -4.122021        -0.613978         1.965534
 C        -2.959393        -1.386072         1.424931
 C        -1.833117        -0.361851         1.670499
 H         0.788864        -0.047494        -0.316618
 H        -1.882047         1.782714        -0.741902
 H        -2.341574        -0.001246        -0.566237
 H        -0.808869         2.677834         1.622054
 H        -0.996543         1.336125         2.954112
 H        -4.461871         1.343878         2.457194
 H        -4.283230         1.105912         0.631289
 H        -2.901276        -2.328850         1.978782
 H        -3.186329        -1.667667         0.362880
 H        -1.527623        -0.435007         2.718415
