19
Iteration:  2189
 O         0.310144        -0.215998         0.412521
 C        -0.826836         0.307307         0.919866
 C        -1.797185         1.083694         0.086298
 C        -2.462544         0.967063         1.500813
 C        -1.013969         1.470712         1.973677
 C        -3.915133         0.768918         1.728096
 O        -4.181816        -0.661640         1.838152
 C        -3.032657        -1.336721         1.228623
 C        -1.943366        -0.456499         1.707730
 H         0.769407        -0.731732         1.199654
 H        -1.318342         2.016334        -0.191902
 H        -2.171934         0.602903        -0.806519
 H        -0.699473         2.514404         1.591242
 H        -0.987473         1.306237         3.015515
 H        -4.223368         1.167269         2.711915
 H        -4.628422         1.244690         1.011439
 H        -2.926578        -2.451866         1.464655
 H        -3.061005        -1.320633         0.110280
 H        -1.577712        -0.676563         2.747418
