19
Iteration:  1599charge 0 multiplicity 1
 O         0.425836        -0.303734         0.511434
 C        -0.751072         0.349474         0.904199
 C        -1.789328         1.001350        -0.066208
 C        -2.475515         1.000183         1.479810
 C        -0.985778         1.438139         2.011531
 C        -4.043576         0.794205         1.813747
 O        -4.184444        -0.717506         1.883129
 C        -3.091059        -1.298513         1.193592
 C        -1.978702        -0.347960         1.672269
 H         1.012343         0.338704         0.372709
 H        -1.605818         2.003832        -0.458116
 H        -2.182187         0.236663        -0.791103
 H        -0.740926         2.514095         1.794648
 H        -0.571761         1.222603         3.112207
 H        -4.512267         1.004256         2.778740
 H        -4.693601         1.208035         0.999777
 H        -3.004970        -2.291145         1.590338
 H        -3.225453        -1.210792         0.088645
 H        -1.625263        -0.653536         2.704390
