19
Iteration:  3342charge 0 multiplicity 1
 O         0.537003        -0.063619         0.409704
 C        -0.781876         0.316459         0.902703
 C        -1.962659         0.636443        -0.074586
 C        -2.466174         0.974846         1.432476
 C        -1.035948         1.639678         1.700269
 C        -3.858349         0.817819         2.017335
 O        -4.307065        -0.568205         1.574525
 C        -3.092152        -1.440815         1.513902
 C        -1.883364        -0.418860         1.875792
 H         1.204700        -0.160746         1.129554
 H        -1.876425         1.521301        -0.682219
 H        -2.396550        -0.141604        -0.575559
 H        -0.930218         2.632122         1.192812
 H        -0.824330         1.571362         2.754662
 H        -3.739206         0.788904         3.086011
 H        -4.706180         1.437965         1.757610
 H        -3.275852        -2.224210         2.296159
 H        -3.183752        -1.836971         0.525184
 H        -1.651449        -0.495534         2.944085
