19
Iteration:  1680
 O         0.532660        -0.123235         0.515441
 C        -0.797443         0.282891         0.881234
 C        -1.893519         0.850187         0.017358
 C        -2.477642         0.989944         1.505012
 C        -1.016153         1.433162         1.907048
 C        -3.921781         0.831973         2.004871
 O        -4.290878        -0.548225         1.545685
 C        -3.019913        -1.371068         1.286088
 C        -2.006898        -0.478845         1.800286
 H         0.808725         0.319982        -0.205082
 H        -1.572226         1.733052        -0.585161
 H        -2.415439         0.191760        -0.643198
 H        -0.533564         2.409261         1.632642
 H        -0.709387         1.124094         2.831112
 H        -3.942249         0.794794         3.126202
 H        -4.693725         1.495087         1.651756
 H        -3.114191        -2.260432         1.894113
 H        -3.003671        -1.713340         0.234220
 H        -1.762072        -0.523547         2.865855
