19
Iteration:  1243
 O         0.517942        -0.113667         0.417093
 C        -0.776218         0.291108         0.982686
 C        -1.933497         0.920923         0.014411
 C        -2.431818         0.986552         1.542328
 C        -1.132068         1.430741         2.023848
 C        -3.895048         0.828040         1.951959
 O        -4.285438        -0.501296         1.540552
 C        -3.078389        -1.358339         1.265248
 C        -1.840468        -0.551103         1.671427
 H         0.839749        -0.907611         1.031452
 H        -1.765914         1.912062        -0.416845
 H        -2.430133         0.242326        -0.683035
 H        -0.770994         2.457445         1.847828
 H        -0.896459         1.193960         2.984331
 H        -4.160441         0.902443         3.069217
 H        -4.525010         1.600211         1.414632
 H        -3.137175        -2.347330         1.735202
 H        -3.029514        -1.635376         0.214581
 H        -1.460900        -0.859532         2.651757
