19
Iteration:  2554
 O         0.418603        -0.045353         0.537073
 C        -0.811224         0.286719         0.963514
 C        -1.908064         0.874704         0.004845
 C        -2.481973         0.891513         1.493583
 C        -1.062552         1.456488         1.863833
 C        -3.922907         0.868093         1.895923
 O        -4.176805        -0.576423         1.717992
 C        -3.016262        -1.333511         1.275731
 C        -1.890339        -0.526288         1.679422
 H         0.531645        -1.043542         0.505549
 H        -1.469383         1.840855        -0.372177
 H        -2.348254         0.302054        -0.808906
 H        -0.884605         2.498539         1.408220
 H        -0.703997         1.421245         2.951649
 H        -4.192951         1.176672         2.937788
 H        -4.539100         1.463166         1.197163
 H        -3.018264        -2.357799         1.648754
 H        -3.065620        -1.518889         0.176511
 H        -1.724500        -0.755665         2.761113
