19
Iteration:  4743
 O         0.408227        -0.007653         0.334420
 C        -0.741466         0.330259         0.911083
 C        -1.969920         0.691142         0.027785
 C        -2.393482         0.814847         1.592129
 C        -1.059040         1.591191         1.818501
 C        -3.866458         0.860647         1.776339
 O        -4.293646        -0.510827         1.479097
 C        -3.105397        -1.421824         1.597419
 C        -1.760417        -0.561317         1.858894
 H         1.120686        -0.029860         1.136636
 H        -1.781690         1.693158        -0.488603
 H        -2.602408         0.000986        -0.493971
 H        -1.218942         2.607392         1.394754
 H        -0.747123         1.739878         2.860302
 H        -4.102024         1.137773         2.811425
 H        -4.503980         1.605413         1.207272
 H        -3.272495        -1.990180         2.531511
 H        -3.214952        -2.072753         0.706476
 H        -1.421881        -0.769427         2.919148
