19
Iteration:  1252
 O         0.430718        -0.097188         0.469438
 C        -0.821254         0.307299         0.904917
 C        -1.874594         0.928194         0.023231
 C        -2.462417         0.832755         1.498570
 C        -1.115787         1.453038         2.081225
 C        -3.900566         0.902436         1.935611
 O        -4.227856        -0.470703         1.608241
 C        -3.006537        -1.383794         1.184198
 C        -1.856174        -0.593102         1.682277
 H         0.849651        -0.967106         0.894960
 H        -1.670523         1.910383        -0.460714
 H        -2.492823         0.251815        -0.508195
 H        -1.091651         2.563386         1.701868
 H        -0.844712         1.217002         3.113481
 H        -3.971696         1.193464         3.027257
 H        -4.546907         1.557141         1.315177
 H        -3.097122        -2.235940         1.796585
 H        -3.030016        -1.585445         0.089748
 H        -1.568393        -0.888618         2.664256
