19
Iteration:  4510charge 0 multiplicity 1
 O         0.321144        -0.244684         0.430649
 C        -0.822027         0.246213         0.912817
 C        -1.995152         0.786154         0.045103
 C        -2.460597         0.968396         1.507323
 C        -1.205262         1.712863         1.793799
 C        -3.904436         0.873112         1.749761
 O        -4.100631        -0.624179         1.709691
 C        -2.888229        -1.392108         1.468955
 C        -1.791908        -0.404616         1.810205
 H         0.893447        -0.613772         1.289236
 H        -1.911048         1.679202        -0.603692
 H        -2.394595        -0.040264        -0.639580
 H        -0.939499         2.493610         1.113137
 H        -0.755140         1.759107         2.778603
 H        -4.163252         1.183294         2.808580
 H        -4.580439         1.501890         1.042792
 H        -3.094175        -2.366399         1.834962
 H        -2.953858        -1.519179         0.384264
 H        -1.484951        -0.373444         2.894412
