19
Iteration:  4117charge 0 multiplicity 1
 O         0.558219        -0.020732         0.668254
 C        -0.786342         0.293560         0.805078
 C        -2.059602         0.622500        -0.094068
 C        -2.464324         0.864305         1.394652
 C        -1.181341         1.641066         1.654807
 C        -3.833497         0.855611         1.933560
 O        -4.266185        -0.568358         1.742205
 C        -3.037759        -1.359596         1.477390
 C        -1.772843        -0.494193         1.810954
 H         0.762191        -0.458662        -0.222425
 H        -2.011020         1.652192        -0.527764
 H        -2.403890        -0.124375        -0.784882
 H        -0.990092         2.686229         1.238427
 H        -0.831448         1.732645         2.725681
 H        -3.981785         0.984312         3.056274
 H        -4.554446         1.560466         1.435584
 H        -3.043324        -2.258211         2.136075
 H        -3.247443        -1.728943         0.404778
 H        -1.406075        -0.412200         2.794713
