19
Iteration:  1665charge 0 multiplicity 1
 O         0.514738        -0.126142         0.540709
 C        -0.754527         0.291943         0.953618
 C        -1.927722         0.829793        -0.019337
 C        -2.468301         0.900616         1.493353
 C        -0.984440         1.424094         1.941097
 C        -3.902299         0.897528         1.958559
 O        -4.351817        -0.653597         1.598120
 C        -3.145527        -1.284166         1.280321
 C        -1.816382        -0.441118         1.736993
 H         0.622982         0.430866        -0.332253
 H        -1.866357         1.844295        -0.375055
 H        -2.368218         0.009163        -0.655194
 H        -0.755441         2.515764         1.577702
 H        -0.768149         1.203175         3.089500
 H        -3.973745         1.143067         3.011486
 H        -4.577842         1.545262         1.355810
 H        -3.096974        -2.275678         1.660153
 H        -3.025468        -1.304175         0.181381
 H        -1.475350        -0.780873         2.738205
