19
Iteration:  2892charge 0 multiplicity 1
 O         0.521559         0.004371         0.513320
 C        -0.792596         0.327068         0.870608
 C        -1.943239         0.659994        -0.107531
 C        -2.479695         0.950574         1.413286
 C        -1.048619         1.568352         1.861102
 C        -3.878981         0.843958         1.886958
 O        -4.291834        -0.559241         1.739339
 C        -3.027477        -1.398736         1.410816
 C        -1.954566        -0.468494         1.716843
 H         1.060871        -0.542404         1.147470
 H        -1.746888         1.553069        -0.727907
 H        -2.463418        -0.116021        -0.836676
 H        -0.718924         2.482975         1.497470
 H        -0.604162         1.277028         2.877498
 H        -3.916228         0.966864         2.988704
 H        -4.621824         1.580501         1.468619
 H        -2.989154        -2.213614         2.250737
 H        -3.179165        -1.945957         0.466624
 H        -1.664939        -0.660731         2.798072
