19
Iteration:  1003charge 0 multiplicity 1
 O         0.460391        -0.221374         0.431646
 C        -0.789957         0.267962         0.989695
 C        -1.767709         1.001459         0.036478
 C        -2.459909         0.972178         1.511306
 C        -1.053212         1.391105         1.967345
 C        -3.998335         0.852472         1.821091
 O        -4.250465        -0.580202         1.735669
 C        -3.066261        -1.322402         1.206900
 C        -1.937138        -0.510486         1.764610
 H         0.848207         0.632147         0.025579
 H        -1.321615         1.864175        -0.489801
 H        -2.181372         0.253440        -0.580417
 H        -0.933396         2.542622         1.743837
 H        -0.779116         1.124141         2.968282
 H        -4.172299         0.991263         2.858575
 H        -4.823540         1.329107         1.196738
 H        -3.056566        -2.351194         1.672780
 H        -3.063129        -1.307242         0.142060
 H        -1.674135        -0.801342         2.824157
