19
Iteration:  2785charge 0 multiplicity 1
 O         0.512839        -0.171682         0.491275
 C        -0.777191         0.277253         0.908849
 C        -1.856299         0.908846        -0.040734
 C        -2.467452         0.980585         1.422161
 C        -1.107740         1.666905         1.893078
 C        -3.990282         0.754531         1.814807
 O        -4.213124        -0.623411         1.798519
 C        -3.095228        -1.358346         1.341063
 C        -1.811918        -0.463024         1.773577
 H         0.372278        -1.006369         0.093327
 H        -1.622921         1.754944        -0.625696
 H        -2.445450         0.198150        -0.687210
 H        -0.862688         2.688494         1.694468
 H        -0.747479         1.549909         3.019072
 H        -4.235557         1.126656         2.817427
 H        -4.730176         1.217668         1.151902
 H        -3.206017        -2.243443         1.943409
 H        -3.196489        -1.862222         0.354724
 H        -1.507451        -0.613508         2.856214
