19
Iteration:   631charge 0 multiplicity 1
 O         0.513806        -0.125512         0.567616
 C        -0.793345         0.246750         0.948244
 C        -2.005587         0.864356         0.040680
 C        -2.408253         0.916557         1.497221
 C        -1.014126         1.407978         1.945560
 C        -3.885831         0.839249         1.898014
 O        -4.267622        -0.533936         1.566467
 C        -3.104647        -1.301291         1.272565
 C        -1.871926        -0.490172         1.720303
 H         0.805603         0.485884        -0.238417
 H        -1.808992         1.852945        -0.367459
 H        -2.659420         0.161980        -0.602272
 H        -0.677050         2.461449         1.654932
 H        -0.611164         1.270025         2.898070
 H        -3.988985         1.003187         2.920485
 H        -4.595702         1.490464         1.325558
 H        -3.162307        -2.172077         1.998320
 H        -3.222669        -1.690865         0.252196
 H        -1.678425        -0.829754         2.748030
