19
Iteration:   956charge 0 multiplicity 1
 O         0.447351        -0.231193         0.556222
 C        -0.839421         0.247948         0.848017
 C        -1.941225         0.954594         0.063889
 C        -2.502503         0.887729         1.534063
 C        -1.120746         1.472119         1.911109
 C        -3.896243         0.838120         1.961334
 O        -4.182213        -0.464043         1.606730
 C        -3.078024        -1.334292         1.238519
 C        -1.785502        -0.573644         1.649492
 H         1.256667         0.240244         1.122284
 H        -1.753112         1.973677        -0.108972
 H        -2.557023         0.399420        -0.699376
 H        -0.786304         2.449578         1.423927
 H        -0.852081         1.394230         2.986658
 H        -4.147738         1.020707         2.967811
 H        -4.503743         1.445528         1.280242
 H        -3.197166        -2.326814         1.677443
 H        -2.992623        -1.346711         0.212986
 H        -1.414188        -0.757549         2.652404
