19
Iteration:  3276
 O         0.366506        -0.232273         0.494437
 C        -0.816203         0.301016         0.854391
 C        -2.028600         0.810952         0.013540
 C        -2.501342         1.022933         1.569202
 C        -0.891236         1.591814         1.727232
 C        -4.093683         0.757523         1.817307
 O        -4.185193        -0.670565         1.495508
 C        -2.902119        -1.317611         1.604446
 C        -1.789056        -0.335223         1.938618
 H         0.251422        -0.355874        -0.599347
 H        -1.900337         1.794771        -0.463487
 H        -2.408941         0.128365        -0.622082
 H        -0.778415         2.634736         1.245732
 H        -0.483883         1.566175         2.742082
 H        -4.367259         0.864766         2.857180
 H        -4.687407         1.379134         1.136820
 H        -2.962291        -1.963072         2.553806
 H        -2.718734        -1.916416         0.728709
 H        -1.246084        -0.382436         2.889183
