19
Iteration:   614charge 0 multiplicity 1
 O         0.543538        -0.226331         0.525219
 C        -0.806569         0.280931         0.844865
 C        -2.039424         0.872202         0.091311
 C        -2.494994         0.930936         1.648000
 C        -1.056813         1.471420         1.910659
 C        -3.946681         0.907485         1.949675
 O        -4.228115        -0.434941         1.447640
 C        -3.016405        -1.433966         1.335263
 C        -1.843202        -0.561823         1.718275
 H         1.051667         0.684730         0.122685
 H        -1.888834         1.860502        -0.411429
 H        -2.632419         0.162266        -0.444123
 H        -0.731133         2.472115         1.495740
 H        -0.783665         1.261036         3.013167
 H        -4.317687         1.016952         3.070569
 H        -4.456246         1.560525         1.250166
 H        -3.103773        -2.287528         1.986356
 H        -2.964628        -1.725451         0.255958
 H        -1.437063        -0.749416         2.718755
