19
Iteration:  1800charge 0 multiplicity 1
 O         0.477434        -0.236406         0.542844
 C        -0.748842         0.309932         0.857461
 C        -2.027347         0.956371         0.022041
 C        -2.463359         0.860091         1.539009
 C        -1.113268         1.568934         2.022216
 C        -3.878073         0.851368         1.965791
 O        -4.234579        -0.496592         1.496650
 C        -3.013542        -1.411015         1.344789
 C        -1.852171        -0.545609         1.684141
 H         0.801954         0.138028        -0.357973
 H        -1.970041         1.901768        -0.495978
 H        -2.490675         0.189288        -0.532007
 H        -0.739360         2.606725         1.578956
 H        -0.731197         1.283181         2.955192
 H        -4.044887         0.861199         3.042151
 H        -4.349536         1.687028         1.503049
 H        -3.183093        -2.214315         1.986642
 H        -3.085475        -1.826071         0.328018
 H        -1.600411        -0.696890         2.737983
