19
Iteration:  4098charge 0 multiplicity 1
 O         0.535012        -0.088787         0.667208
 C        -0.815424         0.332026         0.865294
 C        -1.895755         0.635435        -0.180538
 C        -2.574256         0.972771         1.381892
 C        -1.082795         1.573672         1.648764
 C        -3.921677         0.781635         1.995607
 O        -4.224514        -0.586609         1.843866
 C        -2.993936        -1.323179         1.441645
 C        -1.919522        -0.445861         1.764022
 H         0.742433         0.323454        -0.272177
 H        -1.652324         1.417625        -0.972527
 H        -2.293439        -0.266261        -0.579326
 H        -1.014340         2.528900         1.082469
 H        -0.512712         1.729429         2.583380
 H        -3.962084         1.186094         2.988875
 H        -4.781979         1.310417         1.497945
 H        -3.023385        -2.346676         1.871997
 H        -3.139964        -1.540566         0.405246
 H        -1.556438        -0.569281         2.836207
