19
Iteration:  4222
 O         0.441536        -0.276617         0.428899
 C        -0.833290         0.322550         0.924635
 C        -2.126713         0.711609         0.078036
 C        -2.514730         0.949326         1.506673
 C        -1.056614         1.661090         1.712905
 C        -3.941844         0.802661         1.973887
 O        -4.132319        -0.561757         1.388039
 C        -2.895529        -1.346888         1.548551
 C        -1.854661        -0.349982         1.899615
 H         1.248297         0.426123         0.628550
 H        -2.093479         1.541439        -0.616598
 H        -2.601488        -0.132446        -0.522880
 H        -0.936555         2.581902         1.205778
 H        -0.601370         1.517763         2.664594
 H        -4.066946         0.703672         3.075216
 H        -4.685648         1.348190         1.445641
 H        -3.158003        -2.049981         2.321609
 H        -2.643387        -1.848410         0.650258
 H        -1.396829        -0.395739         2.937835
