19
Iteration:     8
 O         0.418286        -0.081024         0.465329
 C        -0.785712         0.297221         0.931349
 C        -1.965698         0.732510        -0.005236
 C        -2.431506         0.895091         1.465335
 C        -1.080876         1.605380         1.815270
 C        -3.841431         0.840967         1.882373
 O        -4.189772        -0.536057         1.590649
 C        -3.030723        -1.382079         1.437444
 C        -1.909054        -0.503700         1.757333
 H         0.956872        -0.414638         1.376750
 H        -2.037305         1.642305        -0.618203
 H        -2.576985         0.002271        -0.462992
 H        -0.905991         2.562507         1.358633
 H        -0.683759         1.338542         2.867726
 H        -4.042183         1.049481         2.918883
 H        -4.561686         1.502220         1.425225
 H        -3.087056        -2.172101         2.157194
 H        -3.076949        -1.691701         0.395738
 H        -1.764882        -0.481552         2.871684
