19
Iteration:  3283charge 0 multiplicity 1
 O         0.362024        -0.188672         0.483629
 C        -0.893971         0.288657         0.882475
 C        -2.043916         0.852412         0.021210
 C        -2.464414         0.989197         1.591291
 C        -0.900546         1.556152         1.727445
 C        -3.994717         0.782365         1.766199
 O        -4.147905        -0.657963         1.491981
 C        -2.928800        -1.342643         1.668951
 C        -1.818198        -0.332265         1.882398
 H         0.340256        -0.579916        -0.425795
 H        -2.011447         1.825698        -0.461419
 H        -2.588746         0.031278        -0.578827
 H        -0.891507         2.559148         1.307432
 H        -0.414439         1.644915         2.738999
 H        -4.404384         0.908626         2.776380
 H        -4.644590         1.321213         1.043949
 H        -2.828692        -2.112163         2.436647
 H        -2.657717        -1.953901         0.767487
 H        -1.455417        -0.339695         2.909753
