19
Iteration:  2000
 O         0.453070        -0.056142         0.405126
 C        -0.781739         0.288181         0.919804
 C        -1.933655         0.912272         0.040105
 C        -2.429332         0.928818         1.452639
 C        -1.093935         1.507364         1.930829
 C        -3.819159         0.877163         2.006284
 O        -4.288939        -0.482546         1.432835
 C        -3.072572        -1.487918         1.395969
 C        -1.848013        -0.568473         1.786847
 H         0.608427        -0.913220         1.029047
 H        -1.562823         1.850069        -0.333339
 H        -2.606506         0.247299        -0.547909
 H        -1.022666         2.519592         1.674433
 H        -0.785086         1.348478         3.051076
 H        -3.900681         0.951474         3.095359
 H        -4.610113         1.500536         1.593643
 H        -3.168562        -2.387425         2.096946
 H        -3.132039        -1.932346         0.319041
 H        -1.371479        -0.758040         2.810548
