19
Iteration:  2449
 O         0.533347        -0.008376         0.548829
 C        -0.776105         0.242183         0.963484
 C        -1.880811         0.825201        -0.011383
 C        -2.390875         0.876493         1.512261
 C        -1.098349         1.569627         1.943547
 C        -3.869006         0.838437         1.989426
 O        -4.332360        -0.547351         1.634275
 C        -3.169499        -1.350271         1.199371
 C        -1.796812        -0.584911         1.702016
 H         0.364496        -0.791529        -0.158108
 H        -1.790030         1.761229        -0.618429
 H        -2.459422         0.152883        -0.736814
 H        -0.939506         2.563579         1.534497
 H        -0.744295         1.515583         3.018724
 H        -3.919369         1.081493         3.066087
 H        -4.517564         1.478325         1.363727
 H        -3.343954        -2.245036         1.762889
 H        -3.097883        -1.464125         0.130524
 H        -1.652664        -0.871151         2.732620
