19
Iteration:  3864
 O         0.353255        -0.226378         0.325089
 C        -0.814604         0.352670         0.918252
 C        -1.981650         0.782506         0.061734
 C        -2.455349         1.011974         1.471932
 C        -0.977357         1.691767         1.768306
 C        -3.923053         0.732922         1.877705
 O        -4.231499        -0.656729         1.455070
 C        -2.976678        -1.432016         1.612032
 C        -1.855838        -0.285466         1.905605
 H         1.172275         0.027469         0.914125
 H        -1.972263         1.662509        -0.542816
 H        -2.442792        -0.153899        -0.407090
 H        -0.748093         2.575038         1.161204
 H        -0.360439         1.541494         2.701756
 H        -4.014477         0.757324         2.976997
 H        -4.723268         1.350206         1.459629
 H        -3.038706        -1.865823         2.576409
 H        -2.996480        -2.299665         0.878686
 H        -1.681703        -0.431229         2.997347
