19
Iteration:  2960charge 0 multiplicity 1
 O         0.398608        -0.245210         0.508698
 C        -0.866574         0.293643         0.945154
 C        -2.070841         0.763395         0.026165
 C        -2.494686         0.934313         1.487533
 C        -0.991529         1.614253         1.791181
 C        -3.937332         0.747271         1.853855
 O        -4.167424        -0.596697         1.438201
 C        -2.861556        -1.278740         1.539419
 C        -1.851007        -0.304209         1.913396
 H         0.215082        -0.171675        -0.530065
 H        -1.953557         1.758082        -0.516015
 H        -2.577874         0.001319        -0.593875
 H        -0.718973         2.642470         1.421367
 H        -0.674041         1.373122         2.833418
 H        -4.058317         0.902257         2.951466
 H        -4.691427         1.313029         1.294738
 H        -2.879618        -1.976701         2.398702
 H        -2.679202        -1.828439         0.564253
 H        -1.464501        -0.497926         2.946946
