19
Iteration:  4818charge 0 multiplicity 1
 O         0.364694        -0.216360         0.478726
 C        -0.803216         0.265869         0.949601
 C        -1.992161         0.709362         0.078772
 C        -2.460004         0.912278         1.557242
 C        -1.182663         1.781338         1.737123
 C        -3.849832         0.840250         1.932142
 O        -4.111117        -0.535426         1.555279
 C        -2.895845        -1.355410         1.315690
 C        -1.897277        -0.469210         1.835589
 H         0.504220        -0.918917         1.147096
 H        -1.976006         1.699664        -0.604514
 H        -2.519916        -0.041376        -0.513414
 H        -1.062409         2.647547         1.065820
 H        -0.606565         1.871576         2.646844
 H        -3.901520         0.930686         3.036670
 H        -4.659277         1.483954         1.474179
 H        -3.066319        -2.316469         1.844716
 H        -2.825742        -1.505520         0.170993
 H        -1.635309        -0.747925         2.913799
