19
Iteration:  2605
 O         0.469946        -0.110940         0.525442
 C        -0.832518         0.242142         0.894815
 C        -1.887446         0.799580        -0.026913
 C        -2.466996         0.955028         1.464765
 C        -1.118373         1.503124         1.896441
 C        -3.847617         0.826163         2.012310
 O        -4.294225        -0.489637         1.535684
 C        -3.028907        -1.418904         1.340576
 C        -1.844195        -0.498905         1.766398
 H         1.032474         0.565599         0.291134
 H        -2.002711         1.755936        -0.459161
 H        -2.343607         0.132655        -0.727365
 H        -0.907079         2.549166         1.577624
 H        -0.747421         1.400617         2.827778
 H        -3.884198         0.960013         3.088676
 H        -4.508282         1.585353         1.537608
 H        -3.140254        -2.218311         2.137185
 H        -3.131178        -1.941047         0.391462
 H        -1.535467        -0.795127         2.775098
