19
Iteration:  2077
 O         0.308018        -0.263340         0.389417
 C        -0.865006         0.315293         0.922073
 C        -1.953536         0.889220         0.065089
 C        -2.436359         0.993797         1.621635
 C        -1.103610         1.499208         2.017257
 C        -3.899627         0.854606         1.966527
 O        -4.177212        -0.509618         1.339473
 C        -2.937734        -1.365358         1.367278
 C        -1.815152        -0.473801         1.727420
 H         1.023323        -0.000969         0.955681
 H        -1.782272         1.858956        -0.476203
 H        -2.429011         0.113928        -0.518102
 H        -0.764624         2.479178         1.770010
 H        -0.647587         1.192381         3.023218
 H        -3.990740         0.668802         3.068460
 H        -4.683192         1.576268         1.684039
 H        -2.988191        -2.266009         2.063594
 H        -2.907816        -1.838592         0.302037
 H        -1.463756        -0.684105         2.802784
