19
Iteration:  4479charge 0 multiplicity 1
 O         0.282666        -0.267996         0.318350
 C        -0.786003         0.383533         0.880862
 C        -1.952504         0.867662         0.028811
 C        -2.518046         1.016058         1.530895
 C        -1.007623         1.628749         1.859575
 C        -4.018984         0.756956         1.701706
 O        -4.183720        -0.671345         1.555863
 C        -2.892688        -1.369730         1.696337
 C        -1.772971        -0.313262         1.894065
 H         0.584474        -0.955727         0.783589
 H        -1.818672         1.764779        -0.579949
 H        -2.235470        -0.077798        -0.571524
 H        -0.536990         2.552061         1.448360
 H        -0.606899         1.538852         2.915199
 H        -4.364213         0.945841         2.740204
 H        -4.635564         1.183283         0.800377
 H        -3.003607        -2.224896         2.362755
 H        -2.795897        -1.768876         0.661570
 H        -1.456543        -0.279083         2.940538
