19
Iteration:   694charge 0 multiplicity 1
 O         0.462288        -0.178577         0.649325
 C        -0.823571         0.343463         0.917965
 C        -1.925260         0.974308        -0.057318
 C        -2.443600         0.940910         1.481171
 C        -0.990073         1.454580         1.959887
 C        -3.918934         0.828339         1.848338
 O        -4.214951        -0.588326         1.804644
 C        -3.057247        -1.346548         1.121467
 C        -1.893386        -0.504647         1.704763
 H         0.312954        -0.845715        -0.164508
 H        -1.723024         1.915642        -0.504092
 H        -2.500814         0.487980        -0.829509
 H        -0.774176         2.482532         1.835574
 H        -0.605850         1.083248         2.970086
 H        -4.191705         1.321294         2.855582
 H        -4.562042         1.374935         1.113303
 H        -2.993097        -2.416429         1.523312
 H        -3.254815        -1.435585         0.027657
 H        -1.701915        -0.695368         2.811095
