19
Iteration:  4126
 O         0.571155        -0.002395         0.613102
 C        -0.812206         0.296800         0.889521
 C        -2.102692         0.700348        -0.045192
 C        -2.473215         0.878679         1.372399
 C        -1.164711         1.657767         1.695358
 C        -3.809969         0.824675         1.901130
 O        -4.222244        -0.531487         1.684112
 C        -3.019052        -1.396775         1.546718
 C        -1.807763        -0.547063         1.768897
 H         0.538998        -0.767371        -0.059240
 H        -1.991105         1.592512        -0.653797
 H        -2.503140        -0.151555        -0.647425
 H        -1.181519         2.546151         1.047156
 H        -0.787584         1.771691         2.724383
 H        -3.819597         1.189853         2.998802
 H        -4.492875         1.439874         1.314624
 H        -3.054298        -2.209280         2.276282
 H        -3.130671        -1.897263         0.501605
 H        -1.546115        -0.652378         2.806440
