19
Iteration:   342
 O         0.501780        -0.051211         0.616095
 C        -0.824148         0.275368         0.903535
 C        -1.950858         0.776518         0.019904
 C        -2.453563         0.910431         1.492958
 C        -1.004471         1.496575         1.721231
 C        -3.853876         0.785523         1.966760
 O        -4.301800        -0.533898         1.557400
 C        -3.079603        -1.343013         1.379148
 C        -1.923421        -0.446585         1.806043
 H         0.749797        -0.204715        -0.439728
 H        -1.705589         1.699487        -0.354552
 H        -2.314317         0.030330        -0.677197
 H        -0.778993         2.478357         1.314072
 H        -0.635933         1.335262         2.772930
 H        -3.908816         0.910626         3.075757
 H        -4.446743         1.541316         1.422565
 H        -3.216723        -2.236340         1.979136
 H        -2.942274        -1.710354         0.414507
 H        -1.591936        -0.649829         2.849680
