19
Iteration:  4300charge 0 multiplicity 1
 O         0.475666        -0.153923         0.584983
 C        -0.794595         0.357109         0.902001
 C        -1.869787         0.768004        -0.112608
 C        -2.452153         0.967351         1.390064
 C        -1.075642         1.549906         1.820229
 C        -3.995458         0.799448         1.726733
 O        -4.187690        -0.678359         2.006880
 C        -3.033183        -1.312151         1.357658
 C        -1.875272        -0.409953         1.746595
 H         0.726050         0.133136        -0.247226
 H        -1.676766         1.742031        -0.631585
 H        -2.312228        -0.002631        -0.695859
 H        -0.943713         2.481784         1.302241
 H        -0.796710         1.558890         2.841788
 H        -4.315961         1.314154         2.720020
 H        -4.773807         0.994395         0.995435
 H        -2.987554        -2.295897         1.761257
 H        -3.259980        -1.415020         0.298049
 H        -1.774361        -0.549776         2.840496
