19
Iteration:  4075charge 0 multiplicity 1
 O         0.427565        -0.235183         0.555027
 C        -0.755598         0.341335         0.911882
 C        -1.895392         0.755790        -0.087230
 C        -2.505154         0.945118         1.305353
 C        -1.181420         1.662263         1.668806
 C        -3.853240         0.818629         1.810326
 O        -4.167747        -0.664364         1.962893
 C        -3.010165        -1.385611         1.427491
 C        -1.904581        -0.387502         1.789589
 H         0.904188         0.506144         0.299603
 H        -1.667693         1.732279        -0.642233
 H        -2.455223         0.041582        -0.623975
 H        -0.813514         2.686598         1.318520
 H        -1.091527         1.705981         2.781315
 H        -3.904911         1.353371         2.741675
 H        -4.749540         1.291413         1.307728
 H        -3.047204        -2.386564         1.923841
 H        -3.078725        -1.760344         0.413671
 H        -1.651183        -0.502799         2.891329
