19
Iteration:  3198
 O         0.596259        -0.143283         0.593040
 C        -0.755092         0.297266         0.825689
 C        -2.030095         0.709051        -0.032201
 C        -2.460532         0.966207         1.452176
 C        -0.985209         1.618995         1.628515
 C        -3.908762         0.791788         1.891830
 O        -4.253850        -0.647627         1.712883
 C        -3.141847        -1.358323         1.509525
 C        -1.951661        -0.413480         1.800813
 H         1.010444         0.698540         0.310321
 H        -1.914222         1.596579        -0.584855
 H        -2.726472         0.208066        -0.644454
 H        -0.698247         2.621667         1.204216
 H        -0.598281         1.411016         2.677085
 H        -4.060563         1.037523         2.948858
 H        -4.647635         1.406858         1.319128
 H        -2.883255        -2.238287         2.221485
 H        -3.207507        -1.805519         0.506568
 H        -1.619523        -0.342633         2.837642
