19
Iteration:  3880charge 0 multiplicity 1
 O         0.404805        -0.163638         0.283611
 C        -0.800494         0.304626         0.891274
 C        -2.109737         0.768371         0.072748
 C        -2.457009         0.959068         1.553975
 C        -1.029297         1.622496         1.757049
 C        -3.968753         0.807813         1.793091
 O        -4.174841        -0.613717         1.453674
 C        -2.923889        -1.365234         1.700585
 C        -1.803696        -0.403468         1.940284
 H         0.962299        -0.649591         1.068947
 H        -1.892005         1.724075        -0.495533
 H        -2.703117         0.054240        -0.494466
 H        -0.842127         2.589623         1.262216
 H        -0.821357         1.690140         2.809156
 H        -4.272064         0.971639         2.840908
 H        -4.482149         1.378060         1.000370
 H        -3.134862        -2.087359         2.570295
 H        -2.689419        -1.822299         0.729730
 H        -1.357703        -0.448999         2.991767
