19
Iteration:  4218
 O         0.398830        -0.281977         0.436829
 C        -0.826612         0.322741         0.886686
 C        -2.128447         0.692778         0.096765
 C        -2.505994         0.959361         1.533565
 C        -1.085989         1.656900         1.699374
 C        -3.909284         0.783383         1.957083
 O        -4.138305        -0.554902         1.358236
 C        -2.887405        -1.335355         1.562848
 C        -1.797529        -0.357795         1.919445
 H         1.034664         0.299975         0.662869
 H        -2.122704         1.644715        -0.469407
 H        -2.485786        -0.099906        -0.582945
 H        -0.960999         2.686996         1.264540
 H        -0.675974         1.554940         2.753071
 H        -4.076957         0.860822         3.099347
 H        -4.698444         1.368736         1.404839
 H        -3.113072        -2.151470         2.325087
 H        -2.670930        -1.849861         0.602089
 H        -1.370832        -0.308297         2.941114
