19
Iteration:  1134charge 0 multiplicity 1
 O         0.419949        -0.141258         0.379177
 C        -0.826902         0.268286         0.957539
 C        -1.928545         1.018561         0.110358
 C        -2.427147         0.942811         1.558465
 C        -0.995098         1.420701         1.939874
 C        -3.842555         0.798007         1.977483
 O        -4.253309        -0.507011         1.381407
 C        -3.055136        -1.440295         1.287288
 C        -1.964470        -0.508500         1.845614
 H         0.989842        -0.134482         1.212568
 H        -1.575154         1.999935        -0.270397
 H        -2.504805         0.504177        -0.614907
 H        -0.531556         2.386710         1.513706
 H        -0.711807         1.275008         2.960545
 H        -4.125855         0.825226         2.995226
 H        -4.463637         1.541656         1.420345
 H        -3.337243        -2.392835         1.915507
 H        -2.897467        -1.718177         0.230704
 H        -1.701461        -0.623813         2.936156
