19
Iteration:  2385charge 0 multiplicity 1
 O         0.356268        -0.178221         0.408711
 C        -0.796219         0.390992         0.947922
 C        -1.975662         0.993571         0.066262
 C        -2.422790         0.833043         1.589647
 C        -1.058583         1.542505         1.963966
 C        -3.883582         0.807866         1.940947
 O        -4.150875        -0.515990         1.392890
 C        -3.056802        -1.409683         1.353035
 C        -1.814926        -0.541871         1.759261
 H         0.644420        -1.114253         0.854347
 H        -2.050862         2.041108        -0.198639
 H        -2.502536         0.295584        -0.649865
 H        -0.893376         2.612450         1.538757
 H        -0.502362         1.493872         2.981904
 H        -4.048024         0.863767         3.051865
 H        -4.544332         1.478587         1.346284
 H        -3.270201        -2.169965         2.161710
 H        -3.074485        -1.915493         0.359577
 H        -1.605374        -0.585396         2.864746
