19
Iteration:  2935charge 0 multiplicity 1
 O         0.437751        -0.135662         0.509003
 C        -0.878529         0.291609         0.901225
 C        -1.967951         0.783344         0.038656
 C        -2.446828         0.968619         1.529872
 C        -1.103018         1.684150         1.795312
 C        -3.894773         0.838025         1.864194
 O        -4.204918        -0.527131         1.521532
 C        -2.890605        -1.483274         1.483472
 C        -1.847365        -0.467040         1.845839
 H         0.179810        -1.012887        -0.113069
 H        -1.884804         1.621694        -0.669234
 H        -2.601304        -0.181833        -0.363713
 H        -1.075429         2.576891         1.274853
 H        -0.714462         1.750203         2.849280
 H        -4.046678         1.133389         2.942561
 H        -4.607536         1.365900         1.150054
 H        -3.013262        -2.310947         2.272918
 H        -2.877915        -1.763638         0.435978
 H        -1.396774        -0.665424         2.833106
