19
Iteration:   582charge 0 multiplicity 1
 O         0.302457        -0.262107         0.371694
 C        -0.882386         0.299934         0.987687
 C        -1.894373         0.877028         0.125015
 C        -2.437884         0.995952         1.563795
 C        -1.016115         1.573777         1.933753
 C        -3.859229         0.699802         1.987067
 O        -4.187558        -0.475721         1.294665
 C        -3.001619        -1.379289         1.389085
 C        -1.876230        -0.436683         1.797476
 H         1.014932         0.202988         0.625466
 H        -1.625146         1.760381        -0.461106
 H        -2.413481         0.163899        -0.459140
 H        -0.577196         2.420963         1.583127
 H        -0.909639         1.560141         3.044129
 H        -4.006305         0.606330         3.103904
 H        -4.558552         1.442317         1.643430
 H        -3.076343        -2.161225         2.178772
 H        -2.981729        -1.885735         0.379153
 H        -1.762523        -0.585459         2.879286
