19
Iteration:   267charge 0 multiplicity 1
 O         0.423823        -0.369794         0.408652
 C        -0.815049         0.307502         0.912292
 C        -2.029375         0.981314         0.133951
 C        -2.481609         0.990665         1.551828
 C        -0.948017         1.557169         1.818095
 C        -4.024339         0.781585         1.789630
 O        -4.165055        -0.632134         1.469786
 C        -2.983077        -1.366255         1.521691
 C        -1.863775        -0.332346         1.867526
 H         1.156971         0.319951         0.367494
 H        -1.960777         2.019841        -0.324298
 H        -2.541104         0.284615        -0.519612
 H        -0.581594         2.464269         1.380294
 H        -0.589933         1.366521         2.891311
 H        -4.434451         0.970296         2.846245
 H        -4.633379         1.346010         1.023118
 H        -3.031172        -2.253041         2.269465
 H        -2.839296        -1.837067         0.525043
 H        -1.610968        -0.409740         2.942076
