19
Iteration:  4064
 O         0.427967        -0.287336         0.530667
 C        -0.814745         0.375071         0.861942
 C        -1.928269         0.816265        -0.112941
 C        -2.484681         0.910904         1.327062
 C        -1.231186         1.633565         1.775279
 C        -3.924405         0.817500         1.759826
 O        -4.150595        -0.603273         1.965928
 C        -2.950645        -1.369805         1.489570
 C        -1.831797        -0.435816         1.790356
 H         1.181438         0.225339         0.457845
 H        -1.803388         1.773931        -0.710927
 H        -2.277810         0.055480        -0.780215
 H        -1.241031         2.628403         1.240311
 H        -0.874112         1.563122         2.817340
 H        -4.055282         1.298294         2.712417
 H        -4.563474         1.140341         0.886994
 H        -2.903529        -2.314573         2.057873
 H        -3.077646        -1.385673         0.430329
 H        -1.502079        -0.431022         2.864928
