19
Iteration:   597
 O         0.323328        -0.230819         0.469284
 C        -0.789486         0.335818         0.943202
 C        -2.015438         0.874095         0.080645
 C        -2.387595         0.869515         1.590436
 C        -1.015181         1.537024         1.935962
 C        -3.845969         0.801305         1.910598
 O        -4.236686        -0.506068         1.359474
 C        -3.054053        -1.321665         1.349852
 C        -1.826266        -0.520208         1.825673
 H         1.135653         0.469889         0.538775
 H        -1.902047         1.889214        -0.303931
 H        -2.475198         0.209209        -0.666249
 H        -1.027631         2.552984         1.510355
 H        -0.537559         1.336192         2.884760
 H        -3.945027         0.822950         2.953754
 H        -4.489221         1.590048         1.479121
 H        -3.309111        -2.143585         2.098697
 H        -2.932722        -1.821341         0.378538
 H        -1.367954        -0.744846         2.823117
