19
Iteration:  1055
 O         0.494475        -0.127623         0.638198
 C        -0.784140         0.285834         0.883345
 C        -1.923433         0.944448         0.019509
 C        -2.422268         0.952940         1.536952
 C        -0.966739         1.391717         1.941865
 C        -3.964918         0.892331         1.938495
 O        -4.250961        -0.604576         1.694418
 C        -3.048587        -1.341532         1.155391
 C        -1.959549        -0.438976         1.661281
 H         0.466232        -0.725174        -0.282851
 H        -1.699627         1.950619        -0.288110
 H        -2.304319         0.245524        -0.761736
 H        -0.598452         2.454847         1.695818
 H        -0.690555         1.105792         2.918004
 H        -4.352508         1.055836         2.924610
 H        -4.671016         1.297136         1.228278
 H        -3.093849        -2.431703         1.504276
 H        -3.101427        -1.436289         0.041961
 H        -1.678995        -0.751511         2.671239
