19
Iteration:   909
 O         0.427461        -0.087102         0.390658
 C        -0.797290         0.267816         0.949780
 C        -1.873074         0.821113         0.008830
 C        -2.447723         0.953446         1.525642
 C        -1.003088         1.482490         1.981796
 C        -3.954168         0.787238         2.008880
 O        -4.283748        -0.489215         1.451346
 C        -3.082723        -1.314804         1.298518
 C        -1.866184        -0.532219         1.759487
 H         1.166362        -0.353197         1.022156
 H        -1.543940         1.805178        -0.421525
 H        -2.284028         0.018303        -0.582474
 H        -0.763919         2.465325         1.693750
 H        -0.811578         1.308792         3.102745
 H        -3.948385         0.819421         3.124318
 H        -4.611598         1.526067         1.633603
 H        -3.232111        -1.998523         2.093904
 H        -3.000040        -1.772095         0.300404
 H        -1.651896        -0.886970         2.752345
