19
Iteration:  4068charge 0 multiplicity 1
 O         0.422299        -0.283331         0.536683
 C        -0.785587         0.378714         0.879483
 C        -1.908229         0.816640        -0.100800
 C        -2.513354         0.918717         1.320318
 C        -1.221941         1.639931         1.728712
 C        -3.872948         0.817896         1.765149
 O        -4.162301        -0.626322         1.966374
 C        -2.955412        -1.375203         1.475058
 C        -1.876315        -0.430840         1.803134
 H         1.196955         0.407580         0.394122
 H        -1.762548         1.717579        -0.708199
 H        -2.407218         0.028723        -0.721268
 H        -1.142743         2.635574         1.322931
 H        -0.951295         1.622093         2.789220
 H        -3.953213         1.370278         2.733452
 H        -4.609730         1.147564         1.025725
 H        -2.969656        -2.335430         2.021546
 H        -3.104530        -1.471001         0.374732
 H        -1.517783        -0.483563         2.880835
