19
Iteration:  4966
 O         0.394283        -0.431500         0.648366
 C        -0.817030         0.341635         0.880464
 C        -2.066298         0.902429        -0.076258
 C        -2.470717         1.044353         1.417734
 C        -1.147999         1.724558         1.799189
 C        -3.823543         0.707942         1.902050
 O        -4.151557        -0.614963         1.588381
 C        -2.943375        -1.387464         1.463005
 C        -1.852228        -0.328075         1.724120
 H         1.052596         0.185076         0.177903
 H        -1.798993         1.748125        -0.659038
 H        -2.706784         0.139506        -0.581849
 H        -0.913251         2.778213         1.489800
 H        -0.997215         1.481917         2.860296
 H        -3.667199         0.791005         2.999805
 H        -4.752077         1.207990         1.632667
 H        -2.843729        -2.104207         2.298801
 H        -3.011102        -1.891078         0.529087
 H        -1.459907        -0.379696         2.741967
