19
Iteration:   329charge 0 multiplicity 1
 O         0.623172        -0.154213         0.581640
 C        -0.768871         0.222748         0.883124
 C        -1.950319         0.755508        -0.001922
 C        -2.490204         0.936923         1.527883
 C        -1.167662         1.589880         1.787532
 C        -3.934814         0.856227         2.051600
 O        -4.283069        -0.490102         1.498415
 C        -3.054196        -1.351296         1.373013
 C        -1.826166        -0.518697         1.783114
 H         0.668156        -0.071727        -0.297142
 H        -1.815969         1.631992        -0.601132
 H        -2.595815         0.007599        -0.596094
 H        -0.899926         2.499853         1.158789
 H        -0.789123         1.679185         2.787712
 H        -3.947826         0.842190         3.116237
 H        -4.700927         1.539045         1.752992
 H        -3.184249        -2.197575         1.995234
 H        -3.067616        -1.592626         0.335168
 H        -1.463531        -0.638648         2.821076
