19
Iteration:  2414charge 0 multiplicity 1
 O         0.535385        -0.029225         0.484067
 C        -0.791931         0.272852         0.925894
 C        -1.984800         0.899224        -0.082475
 C        -2.467154         0.972781         1.543798
 C        -1.021161         1.432035         1.958039
 C        -3.936130         0.812511         2.013280
 O        -4.266068        -0.539386         1.494053
 C        -3.089293        -1.354626         1.313332
 C        -1.832654        -0.523579         1.743420
 H         0.872770        -0.972099         0.625210
 H        -1.784580         1.927207        -0.569515
 H        -2.597563         0.145449        -0.574965
 H        -0.591295         2.335808         1.736309
 H        -0.694795         1.000160         2.930121
 H        -4.039193         0.897320         3.131689
 H        -4.665868         1.517855         1.615459
 H        -3.262376        -2.211231         1.946231
 H        -3.152147        -1.832330         0.333848
 H        -1.581669        -0.547707         2.786113
