19
Iteration:  4240
 O         0.478872        -0.155417         0.490095
 C        -0.797391         0.275467         0.876550
 C        -2.012050         0.699047        -0.039429
 C        -2.469869         1.087355         1.498766
 C        -0.987001         1.594695         1.716878
 C        -3.947556         0.725628         1.978526
 O        -4.241681        -0.591522         1.510933
 C        -3.021226        -1.405469         1.540377
 C        -1.862302        -0.401503         1.844112
 H         1.005013         0.776570         0.462784
 H        -1.831263         1.539831        -0.717143
 H        -2.602084        -0.083565        -0.614367
 H        -0.712230         2.522298         1.130407
 H        -0.696977         1.776053         2.805661
 H        -3.940975         0.969466         3.088404
 H        -4.807689         1.347236         1.585116
 H        -2.974773        -2.224307         2.345042
 H        -3.106632        -1.965616         0.581469
 H        -1.625713        -0.329768         2.923612
