19
Iteration:  1399charge 0 multiplicity 1
 O         0.443614        -0.150689         0.472214
 C        -0.820507         0.279770         0.907917
 C        -1.894550         0.916916         0.105286
 C        -2.462129         0.895814         1.530850
 C        -1.101308         1.448958         1.980072
 C        -3.887279         0.805675         1.954008
 O        -4.226111        -0.448560         1.540574
 C        -3.050519        -1.332613         1.227288
 C        -1.871936        -0.575261         1.662291
 H         1.034679         0.131228         1.205739
 H        -1.822777         1.904455        -0.324746
 H        -2.447900         0.301907        -0.616498
 H        -0.771388         2.424073         1.596007
 H        -0.689733         1.190031         2.992323
 H        -3.854965         0.969256         3.093901
 H        -4.629347         1.565074         1.510512
 H        -3.272225        -2.309783         1.756625
 H        -3.126233        -1.534713         0.163123
 H        -1.510184        -1.037543         2.600127
