19
Iteration:  1045
 O         0.512596        -0.203544         0.618442
 C        -0.806788         0.377383         0.912899
 C        -1.921271         0.937780         0.034604
 C        -2.485876         0.960790         1.547601
 C        -1.017138         1.446473         2.046273
 C        -3.941141         0.903695         1.857807
 O        -4.195574        -0.620269         1.713809
 C        -3.082095        -1.352640         1.122277
 C        -1.911345        -0.521396         1.616270
 H         0.425890        -0.517729        -0.399781
 H        -1.770317         1.876706        -0.494984
 H        -2.546140         0.300602        -0.613641
 H        -0.711589         2.493095         1.625777
 H        -0.504748         1.180023         2.913361
 H        -4.044561         1.149578         2.869419
 H        -4.536938         1.568289         1.211204
 H        -3.126556        -2.256961         1.795543
 H        -3.256441        -1.540407         0.081848
 H        -1.675756        -0.812273         2.657873
