19
Iteration:   247charge 0 multiplicity 1
 O         0.264791        -0.289794         0.411255
 C        -0.839308         0.355378         0.904590
 C        -1.957741         0.833031         0.045013
 C        -2.434153         0.965385         1.595012
 C        -1.020677         1.658565         1.920440
 C        -3.913216         0.835321         1.770777
 O        -4.256613        -0.598970         1.500077
 C        -2.926470        -1.386850         1.483962
 C        -1.766611        -0.460763         1.818287
 H         0.945339         0.190302         0.656279
 H        -1.647496         1.875482        -0.538438
 H        -2.477307         0.106452        -0.572051
 H        -0.851003         2.657941         1.648357
 H        -0.557816         1.486791         2.963739
 H        -4.251270         1.083441         2.713400
 H        -4.364895         1.442887         0.967608
 H        -2.997932        -2.161024         2.318152
 H        -2.944339        -2.094837         0.584035
 H        -1.361989        -0.687293         2.816324
