19
Iteration:  4861
 O         0.579818        -0.035969         0.535654
 C        -0.837569         0.343793         0.831041
 C        -1.930361         0.855567        -0.024986
 C        -2.471090         1.015473         1.418956
 C        -1.056733         1.514541         1.843211
 C        -3.849922         0.837545         1.831223
 O        -4.254331        -0.576464         1.640640
 C        -3.108849        -1.546983         1.590959
 C        -1.933107        -0.495445         1.717306
 H         0.597775        -0.969984        -0.045809
 H        -1.706931         1.936466        -0.520311
 H        -2.380949         0.097221        -0.657323
 H        -0.831951         2.489566         1.371183
 H        -0.652578         1.467066         2.842342
 H        -4.061536         1.170362         2.894156
 H        -4.687984         1.387450         1.330577
 H        -3.057318        -2.029765         2.578347
 H        -3.290041        -2.292872         0.715234
 H        -1.548136        -0.457873         2.779915
