19
Iteration:   684charge 0 multiplicity 1
 O         0.505495        -0.224061         0.597869
 C        -0.759099         0.293422         0.898487
 C        -1.934894         0.981179         0.003502
 C        -2.459617         1.004207         1.448224
 C        -1.079669         1.482783         2.001790
 C        -3.882225         0.834885         1.848269
 O        -4.211376        -0.606037         1.786787
 C        -3.073086        -1.333326         1.172556
 C        -1.911715        -0.470132         1.667845
 H         0.542788        -0.711516        -0.254929
 H        -1.703997         1.917826        -0.417728
 H        -2.372360         0.184118        -0.602370
 H        -0.836154         2.469021         1.706980
 H        -1.029476         1.248835         3.077486
 H        -4.005427         1.047291         2.937188
 H        -4.622905         1.344396         1.182517
 H        -3.238450        -2.407932         1.538874
 H        -3.191432        -1.256585         0.058541
 H        -1.704915        -0.782544         2.744777
