19
Iteration:   744
 O         0.522363        -0.107263         0.417126
 C        -0.712865         0.377567         0.938038
 C        -1.831390         0.871350         0.041247
 C        -2.467417         0.841799         1.479425
 C        -1.135228         1.400520         2.035740
 C        -3.890654         0.899423         1.855482
 O        -4.262471        -0.554167         1.720727
 C        -3.110280        -1.316995         1.235331
 C        -1.928655        -0.510831         1.703449
 H         0.573318        -1.029041         0.399874
 H        -1.837868         1.915498        -0.450479
 H        -2.058783         0.179875        -0.789592
 H        -0.899224         2.495285         1.916042
 H        -0.951243         1.299745         3.135319
 H        -4.026255         1.184602         2.898887
 H        -4.577186         1.493825         1.269115
 H        -3.104025        -2.297678         1.651975
 H        -3.260301        -1.401320         0.149135
 H        -1.761233        -0.722294         2.752975
