19
Iteration:  3380
 O         0.468840        -0.178368         0.673066
 C        -0.821172         0.330974         0.766660
 C        -2.051577         0.716158        -0.112160
 C        -2.476625         0.883307         1.468873
 C        -1.145672         1.613091         1.763704
 C        -3.889852         0.906880         1.911943
 O        -4.188222        -0.571288         1.760735
 C        -2.980604        -1.366876         1.435991
 C        -1.810469        -0.474370         1.752694
 H         0.819214         0.153463        -0.082105
 H        -1.914332         1.707409        -0.650125
 H        -2.598759        -0.075219        -0.810172
 H        -0.945429         2.649342         1.491029
 H        -0.637005         1.270315         2.700858
 H        -3.991326         1.370542         2.956206
 H        -4.570049         1.460252         1.226453
 H        -2.897944        -2.319890         1.963502
 H        -3.020288        -1.597849         0.295567
 H        -1.290443        -0.651524         2.731185
