19
Iteration:   873
 O         0.381711        -0.113595         0.405627
 C        -0.798758         0.356960         0.923417
 C        -2.044351         0.911037         0.130636
 C        -2.411790         0.917860         1.644018
 C        -0.930372         1.502274         1.984459
 C        -3.873378         0.822919         1.859023
 O        -4.179169        -0.491646         1.365435
 C        -3.073185        -1.364784         1.364976
 C        -1.850631        -0.602825         1.780886
 H         0.553619        -1.008957         0.841081
 H        -2.076502         1.924588        -0.390872
 H        -2.519928         0.235344        -0.591222
 H        -0.862388         2.588004         1.704378
 H        -0.618878         1.349209         2.965090
 H        -4.333354         0.916667         2.911519
 H        -4.530806         1.437880         1.137364
 H        -3.301994        -2.118558         2.174307
 H        -3.036093        -2.077854         0.473318
 H        -1.386543        -0.788671         2.779536
