19
Iteration:  4536
 O         0.496342        -0.108788         0.504972
 C        -0.720147         0.317921         0.891631
 C        -1.914703         0.687036        -0.098997
 C        -2.491566         0.887555         1.391194
 C        -1.080611         1.623072         1.717961
 C        -3.939859         0.826992         1.947137
 O        -4.276910        -0.650191         1.804844
 C        -3.032178        -1.300305         1.400193
 C        -1.909297        -0.403042         1.756784
 H         1.171517        -0.094073         1.329187
 H        -1.564250         1.466024        -0.783507
 H        -2.276540        -0.118337        -0.715256
 H        -0.988620         2.648685         1.239987
 H        -0.661166         1.493970         2.756897
 H        -3.838807         1.115784         3.006630
 H        -4.787476         1.466977         1.550365
 H        -3.011587        -2.242141         1.988771
 H        -3.279846        -1.565347         0.364499
 H        -1.882313        -0.414980         2.836030
