19
Iteration:  4273
 O         0.520965        -0.134552         0.578793
 C        -0.773288         0.331980         0.838976
 C        -1.977257         0.764016        -0.118581
 C        -2.437937         0.883762         1.379157
 C        -1.257858         1.566689         1.846214
 C        -3.854375         0.878251         1.882217
 O        -4.193258        -0.497777         1.784065
 C        -3.015235        -1.457646         1.483695
 C        -1.811974        -0.529806         1.715629
 H         0.906693         0.420939        -0.030940
 H        -1.962941         1.743824        -0.580224
 H        -2.352190        -0.043603        -0.839326
 H        -1.245506         2.583228         1.350428
 H        -1.159805         1.558008         2.987091
 H        -3.954740         1.258744         2.946495
 H        -4.550220         1.232884         1.101019
 H        -3.174328        -2.280251         2.278461
 H        -3.255107        -1.788372         0.453074
 H        -1.618230        -0.532355         2.810527
