19
Iteration:  3149
 O         0.445930        -0.282202         0.521546
 C        -0.794545         0.319527         0.863912
 C        -1.973077         0.779163        -0.081232
 C        -2.462497         0.955216         1.366117
 C        -1.252394         1.671279         1.958518
 C        -3.878266         0.794984         1.692540
 O        -4.070983        -0.538923         1.940498
 C        -3.043805        -1.373388         1.398629
 C        -1.832669        -0.455573         1.787648
 H         0.930905         0.265836        -0.258094
 H        -1.843029         1.566843        -0.899218
 H        -2.458686        -0.094749        -0.616410
 H        -1.146688         2.766212         1.687103
 H        -0.992374         1.490637         3.015312
 H        -4.169138         1.406406         2.554353
 H        -4.541641         1.086163         0.886416
 H        -3.098872        -2.325186         1.919243
 H        -3.025623        -1.642362         0.278860
 H        -1.468309        -0.396146         2.825275
