19
Iteration:  4010
 O         0.423432        -0.162377         0.462602
 C        -0.834523         0.302883         0.959744
 C        -1.861817         0.780933        -0.077802
 C        -2.487803         0.881818         1.351931
 C        -1.003161         1.639323         1.695629
 C        -4.018392         0.776628         1.715873
 O        -4.176823        -0.637972         1.952270
 C        -3.019510        -1.335990         1.496562
 C        -1.886834        -0.418282         1.893358
 H         0.865237         0.516553         0.062989
 H        -1.659675         1.822581        -0.509296
 H        -2.319470         0.121857        -0.785837
 H        -0.779588         2.629280         1.224481
 H        -0.885794         1.604346         2.777280
 H        -4.327411         1.395322         2.550252
 H        -4.681704         1.076334         0.836206
 H        -2.937570        -2.328229         2.009209
 H        -3.039747        -1.613068         0.429410
 H        -1.502600        -0.669742         2.961102
