19
Iteration:  2087charge 0 multiplicity 1
 O         0.385215        -0.248967         0.396090
 C        -0.805949         0.364520         0.890206
 C        -1.991496         0.875187         0.017359
 C        -2.473532         0.974203         1.500142
 C        -1.064444         1.512075         2.084141
 C        -3.851576         0.781349         2.022400
 O        -4.196124        -0.451383         1.382743
 C        -3.017679        -1.389895         1.328538
 C        -1.839332        -0.497501         1.771396
 H         1.144178         0.010554         1.059804
 H        -2.176053         1.810818        -0.548591
 H        -2.474245         0.074425        -0.572373
 H        -0.748059         2.453936         1.788901
 H        -0.965384         1.251851         3.222066
 H        -3.974517         0.863141         3.175794
 H        -4.553623         1.412152         1.457119
 H        -3.119710        -2.128555         2.156144
 H        -2.907661        -1.838172         0.243139
 H        -1.390932        -0.854354         2.771792
