19
Iteration:  3762charge 0 multiplicity 1
 O         0.518219        -0.138648         0.428649
 C        -0.850594         0.331602         0.962233
 C        -1.880542         0.865310        -0.052034
 C        -2.477057         0.915916         1.335141
 C        -1.190860         1.612808         1.900216
 C        -3.913947         0.811796         1.692823
 O        -4.123103        -0.592668         1.968278
 C        -3.067363        -1.391360         1.437332
 C        -1.851335        -0.459196         1.750674
 H         0.286850        -0.983951        -0.193363
 H        -1.632382         1.760230        -0.711463
 H        -2.150546         0.067550        -0.705960
 H        -1.019377         2.723923         1.834795
 H        -1.081718         1.330455         2.960739
 H        -4.128049         1.327482         2.662396
 H        -4.617472         1.140597         0.923382
 H        -3.138901        -2.329321         2.020602
 H        -3.149614        -1.668574         0.375301
 H        -1.568592        -0.618681         2.780369
