19
Iteration:   496charge 0 multiplicity 1
 O         0.562341        -0.014426         0.535784
 C        -0.815911         0.227720         0.929712
 C        -1.903085         0.816517        -0.005721
 C        -2.441694         0.911776         1.451641
 C        -1.047438         1.418992         1.951729
 C        -3.905098         0.819723         1.880876
 O        -4.353485        -0.548162         1.624595
 C        -3.038535        -1.258757         1.332815
 C        -1.879625        -0.504145         1.750665
 H         0.528094        -0.693344        -0.350177
 H        -1.689165         1.703532        -0.585863
 H        -2.423308         0.115136        -0.602159
 H        -0.928833         2.454664         1.650348
 H        -0.887355         1.235854         3.091259
 H        -3.795554         1.004078         2.905716
 H        -4.583343         1.518969         1.443644
 H        -3.124348        -2.245895         1.890740
 H        -3.180805        -1.400761         0.248525
 H        -1.545519        -0.581626         2.847867
