19
Iteration:   454charge 0 multiplicity 1
 O         0.510647        -0.216517         0.658375
 C        -0.759491         0.274477         0.893067
 C        -1.916580         0.903914        -0.039184
 C        -2.452049         0.893569         1.411685
 C        -1.157315         1.572016         1.878857
 C        -3.854833         0.847148         1.874045
 O        -4.293073        -0.594276         1.823157
 C        -3.129299        -1.287302         1.252160
 C        -1.833132        -0.562868         1.616571
 H         1.053134         0.432338         0.196708
 H        -1.589736         1.912904        -0.348152
 H        -2.468823         0.381637        -0.778188
 H        -0.859926         2.541741         1.411728
 H        -0.873672         1.289367         2.951574
 H        -3.900679         1.103177         2.992608
 H        -4.551224         1.423009         1.219554
 H        -3.102634        -2.290768         1.759573
 H        -3.197668        -1.493131         0.226066
 H        -1.427531        -0.741787         2.630885
