19
Iteration:  3947charge 0 multiplicity 1
 O         0.551742        -0.063402         0.645096
 C        -0.827077         0.228227         0.846263
 C        -1.958386         0.718518        -0.159697
 C        -2.481755         0.949847         1.415215
 C        -1.071783         1.628306         1.588885
 C        -3.981835         0.798674         2.092848
 O        -4.261066        -0.609596         1.676186
 C        -2.964581        -1.347362         1.511103
 C        -1.913258        -0.408572         1.806892
 H         0.524971        -0.539103        -0.123824
 H        -1.577845         1.630401        -0.745660
 H        -2.426768         0.021319        -0.814675
 H        -0.802167         2.483067         0.992668
 H        -0.843902         1.780475         2.636141
 H        -4.069344         0.832985         3.195974
 H        -4.664958         1.390626         1.488110
 H        -2.743164        -2.129427         2.350615
 H        -2.991344        -1.768989         0.493900
 H        -1.340959        -0.456504         2.779089
