19
Iteration:  4496charge 0 multiplicity 1
 O         0.295659        -0.271933         0.370453
 C        -0.890404         0.302174         0.917460
 C        -2.000554         0.836396         0.033572
 C        -2.435215         0.980882         1.489117
 C        -1.098385         1.686696         1.812781
 C        -3.911884         0.845414         1.705470
 O        -4.102426        -0.642628         1.649231
 C        -2.857880        -1.394304         1.496981
 C        -1.838385        -0.398710         1.926261
 H         0.638119        -0.831909         0.979575
 H        -1.663736         1.807663        -0.406430
 H        -2.704460         0.280361        -0.528071
 H        -1.078712         2.674181         1.377445
 H        -0.811319         1.713566         2.851712
 H        -4.356303         1.280056         2.617780
 H        -4.456251         1.188037         0.870142
 H        -2.754296        -2.065324         2.381152
 H        -2.647969        -1.909239         0.553370
 H        -1.531499        -0.524617         3.004961
