19
Iteration:  2653charge 0 multiplicity 1
 O         0.395556        -0.197020         0.372488
 C        -0.843932         0.389946         0.908532
 C        -1.996619         0.850273         0.123765
 C        -2.423849         0.942649         1.622798
 C        -1.007367         1.625215         1.898832
 C        -4.002584         0.844715         1.879489
 O        -4.261913        -0.587027         1.381835
 C        -2.907900        -1.430712         1.433707
 C        -1.779919        -0.438111         1.845902
 H         0.399887        -1.147661         0.672564
 H        -1.686250         1.560618        -0.624024
 H        -2.618590         0.074923        -0.382257
 H        -0.743419         2.651420         1.577503
 H        -0.614971         1.449311         3.022065
 H        -4.171911         0.885029         2.983740
 H        -4.563311         1.599789         1.318345
 H        -3.073910        -2.268507         2.137575
 H        -2.747222        -1.719305         0.368330
 H        -1.441347        -0.655937         2.891206
