19
Iteration:  1395charge 0 multiplicity 1
 O         0.460796        -0.133550         0.471597
 C        -0.822975         0.256186         0.922880
 C        -1.867979         0.926230         0.099034
 C        -2.493616         0.905603         1.523829
 C        -1.065757         1.437459         1.973783
 C        -3.890736         0.835598         1.965886
 O        -4.231812        -0.484538         1.554519
 C        -3.067552        -1.351517         1.219105
 C        -1.897476        -0.582790         1.659960
 H         1.068736         0.233024         1.217200
 H        -1.786455         1.941555        -0.293665
 H        -2.504277         0.338419        -0.593520
 H        -0.718903         2.456006         1.461013
 H        -0.614289         1.268957         2.939332
 H        -3.950912         0.903828         3.052025
 H        -4.514262         1.556122         1.521139
 H        -3.267918        -2.291955         1.744210
 H        -3.157038        -1.421482         0.119255
 H        -1.614136        -0.932625         2.637114
