19
Iteration:   981
 O         0.429062        -0.211959         0.520031
 C        -0.818408         0.327643         0.939487
 C        -1.955797         0.916743        -0.007441
 C        -2.451192         0.905890         1.539881
 C        -0.942664         1.474527         2.025344
 C        -3.871479         0.860417         1.836539
 O        -4.272542        -0.602131         1.692655
 C        -3.125646        -1.344974         1.176309
 C        -1.893302        -0.467999         1.675127
 H         1.289593         0.346566         0.622253
 H        -1.829151         1.955139        -0.342691
 H        -2.510256         0.228997        -0.594325
 H        -0.498853         2.555527         1.728762
 H        -0.655605         1.205450         3.016659
 H        -4.126500         1.057490         2.866142
 H        -4.507952         1.445375         1.065409
 H        -2.850891        -2.281217         1.755626
 H        -3.117435        -1.535282         0.104197
 H        -1.669399        -0.740106         2.756287
