19
Iteration:   330
 O         0.620619        -0.147704         0.586596
 C        -0.776036         0.220612         0.882552
 C        -1.945229         0.760109         0.005677
 C        -2.492430         0.937014         1.528937
 C        -1.162636         1.585200         1.775510
 C        -3.928198         0.852724         2.047089
 O        -4.286905        -0.495716         1.500981
 C        -3.055144        -1.350752         1.372239
 C        -1.831232        -0.513886         1.781668
 H         0.686152        -0.073850        -0.358266
 H        -1.827757         1.589053        -0.590613
 H        -2.559637         0.040058        -0.605378
 H        -0.883147         2.483889         1.167220
 H        -0.774031         1.651274         2.804978
 H        -3.951868         0.848908         3.148002
 H        -4.693025         1.563006         1.732655
 H        -3.202469        -2.195696         2.001124
 H        -3.043194        -1.578912         0.357297
 H        -1.462264        -0.639405         2.823602
