19
Iteration:   551
 O         0.361367        -0.273433         0.353497
 C        -0.835963         0.327328         0.902050
 C        -2.001398         0.921976         0.102930
 C        -2.437462         0.921257         1.604488
 C        -1.038790         1.535539         1.939292
 C        -3.918950         0.741686         1.943507
 O        -4.189453        -0.505573         1.306913
 C        -2.938734        -1.305758         1.417134
 C        -1.853708        -0.428763         1.850599
 H         0.878349        -0.566543         1.274207
 H        -1.798178         1.918054        -0.302787
 H        -2.496957         0.290490        -0.563717
 H        -0.747158         2.541069         1.640927
 H        -0.808945         1.181658         2.977806
 H        -4.094408         0.745272         2.979784
 H        -4.507202         1.506028         1.459250
 H        -3.127036        -2.187019         2.118152
 H        -2.929023        -1.733736         0.382576
 H        -1.489222        -0.502991         2.929792
