19
Iteration:  1627
 O         0.407721        -0.223897         0.540701
 C        -0.795586         0.283222         0.934970
 C        -1.898774         0.981406         0.039324
 C        -2.430298         0.932839         1.473236
 C        -1.124907         1.458958         2.001186
 C        -3.901506         0.932857         1.758693
 O        -4.148970        -0.641358         1.854316
 C        -3.070255        -1.329128         1.194387
 C        -1.878048        -0.552109         1.650494
 H         0.755694         0.284087        -0.117580
 H        -1.652228         2.040112        -0.247203
 H        -2.255068         0.473820        -0.827922
 H        -0.899877         2.461396         1.710239
 H        -0.848034         1.388315         3.017943
 H        -4.415830         1.170506         2.708436
 H        -4.472361         1.326101         0.915847
 H        -3.037914        -2.371499         1.706381
 H        -3.215100        -1.432354         0.112780
 H        -1.571287        -0.716961         2.689516
