19
Iteration:  2829charge 0 multiplicity 1
 O         0.446143        -0.233533         0.568315
 C        -0.845684         0.334041         0.915612
 C        -1.945368         0.810120        -0.002676
 C        -2.460737         1.115458         1.454166
 C        -1.093077         1.540778         1.889171
 C        -3.959450         0.765209         1.694728
 O        -4.122042        -0.617242         1.847535
 C        -3.018084        -1.326797         1.378947
 C        -1.884848        -0.496608         1.717803
 H         0.720299         0.349089        -0.170073
 H        -1.671633         1.666373        -0.588515
 H        -2.487947         0.179266        -0.725464
 H        -0.695201         2.429084         1.390317
 H        -0.649359         1.548044         2.960778
 H        -4.226208         1.155556         2.684301
 H        -4.658022         1.245768         1.009579
 H        -3.000592        -2.323736         1.756044
 H        -3.142014        -1.571848         0.293233
 H        -1.553215        -0.690926         2.781624
