19
Iteration:  1314
 O         0.428316        -0.203227         0.483193
 C        -0.750837         0.316183         0.936946
 C        -1.801657         1.114097        -0.012025
 C        -2.482264         0.943266         1.477464
 C        -1.040048         1.397507         2.027810
 C        -3.944068         0.780599         1.816403
 O        -4.196248        -0.658599         1.844376
 C        -3.127519        -1.283068         1.168161
 C        -1.945625        -0.503638         1.621968
 H         1.095802        -0.173839         1.229315
 H        -1.482618         2.134317        -0.383034
 H        -2.290172         0.484186        -0.773695
 H        -0.685436         2.410954         1.878848
 H        -0.790190         1.127389         3.113289
 H        -4.333893         1.259601         2.677850
 H        -4.563126         1.125822         0.971087
 H        -3.239326        -2.322633         1.473410
 H        -3.361984        -1.336859         0.066046
 H        -1.625174        -0.817894         2.671389
