19
Iteration:  2757charge 0 multiplicity 1
 O         0.464492        -0.013979         0.500122
 C        -0.811552         0.272778         0.900162
 C        -1.936587         0.778020        -0.015440
 C        -2.451869         0.911556         1.465839
 C        -1.113362         1.474437         1.820967
 C        -3.856428         0.822540         1.867730
 O        -4.253751        -0.574670         1.693712
 C        -3.047992        -1.305665         1.302672
 C        -1.844040        -0.469175         1.836764
 H         0.807581        -0.695316         1.154669
 H        -1.861088         1.769818        -0.644333
 H        -2.403813        -0.004585        -0.577307
 H        -0.988747         2.478781         1.282859
 H        -0.621433         1.297341         2.758341
 H        -3.916914         1.092014         2.951996
 H        -4.596478         1.460263         1.330226
 H        -3.154227        -2.202239         1.986697
 H        -3.035019        -1.685739         0.260322
 H        -1.527160        -0.613614         2.852178
