19
Iteration:  1768
 O         0.300594        -0.257204         0.399207
 C        -0.863777         0.300256         0.956903
 C        -1.944196         0.934335         0.087465
 C        -2.430686         0.898572         1.580101
 C        -0.987661         1.562880         1.979433
 C        -3.937748         0.761991         1.917851
 O        -4.195081        -0.503489         1.337723
 C        -3.000950        -1.383965         1.409364
 C        -1.819988        -0.468853         1.873888
 H         0.735450         0.513388        -0.104449
 H        -1.713937         1.843762        -0.468514
 H        -2.384985         0.179601        -0.528356
 H        -0.568520         2.573685         1.529318
 H        -0.552684         1.388436         2.937005
 H        -4.114708         0.711759         3.014137
 H        -4.525501         1.556396         1.480145
 H        -3.077929        -2.278596         1.971985
 H        -2.838683        -1.692760         0.389911
 H        -1.500898        -0.606580         2.923883
