19
Iteration:   157charge 0 multiplicity 1
 O         0.496357        -0.151914         0.511103
 C        -0.803629         0.258419         0.889125
 C        -1.972004         0.825065        -0.108242
 C        -2.488365         0.903752         1.338939
 C        -1.199482         1.534154         1.886760
 C        -3.846761         0.815638         1.866432
 O        -4.236560        -0.523821         1.706000
 C        -2.970198        -1.303025         1.444117
 C        -1.819818        -0.467063         1.811140
 H         0.646957        -0.884507         0.976865
 H        -1.687036         1.810849        -0.609101
 H        -2.603697         0.074691        -0.745843
 H        -0.972136         2.579393         1.593522
 H        -1.137389         1.516236         2.976363
 H        -3.785754         1.105883         2.865678
 H        -4.562943         1.440168         1.316443
 H        -3.124119        -2.306427         1.971262
 H        -2.948311        -1.624660         0.405754
 H        -1.443639        -0.415014         2.836191
