19
Iteration:  1942
 O         0.431134        -0.172458         0.449087
 C        -0.810977         0.236419         0.988925
 C        -1.952007         0.903199         0.055254
 C        -2.430912         0.863669         1.455843
 C        -1.127655         1.497655         1.992105
 C        -3.839492         0.865547         1.863020
 O        -4.143993        -0.546311         1.732881
 C        -3.063961        -1.323308         1.178917
 C        -1.926232        -0.506495         1.697841
 H         1.046495         0.157916         1.077344
 H        -1.700814         1.820212        -0.453622
 H        -2.459401         0.273148        -0.694959
 H        -1.114211         2.496440         1.459710
 H        -0.968982         1.539740         3.025571
 H        -3.961041         1.144082         2.933368
 H        -4.487484         1.440805         1.201407
 H        -3.065463        -2.277941         1.668043
 H        -3.177425        -1.428646         0.017346
 H        -1.556319        -0.825529         2.675723
