19
Iteration:  2520
 O         0.381399        -0.288843         0.380852
 C        -0.726538         0.368400         0.952278
 C        -1.886362         0.937056         0.034823
 C        -2.449415         0.908230         1.478211
 C        -1.096045         1.530851         2.036940
 C        -3.955599         0.860412         1.826002
 O        -4.226256        -0.670194         1.772947
 C        -2.985495        -1.338959         1.259309
 C        -1.908229        -0.416795         1.663201
 H         1.280383        -0.183949         0.984477
 H        -1.675309         1.963945        -0.350363
 H        -2.298843         0.280976        -0.688143
 H        -1.083745         2.667197         1.664865
 H        -0.818300         1.384524         3.105724
 H        -4.346247         1.310303         2.761522
 H        -4.372593         1.318768         0.908265
 H        -2.855965        -2.302971         1.806071
 H        -3.158032        -1.384824         0.179695
 H        -1.731345        -0.623767         2.760232
