19
Iteration:  3949
 O         0.527005        -0.059852         0.663648
 C        -0.833661         0.225496         0.844454
 C        -1.943131         0.731270        -0.162142
 C        -2.482561         0.944583         1.396412
 C        -1.080921         1.625186         1.590127
 C        -3.965382         0.809268         2.094163
 O        -4.260851        -0.608858         1.683211
 C        -2.967762        -1.362376         1.506275
 C        -1.889736        -0.423081         1.801454
 H         0.565022        -0.477831        -0.156242
 H        -1.641102         1.602016        -0.730475
 H        -2.485232        -0.010817        -0.760533
 H        -0.786818         2.462478         0.987554
 H        -0.827969         1.792243         2.652180
 H        -4.028028         0.873977         3.217014
 H        -4.630491         1.357729         1.474487
 H        -2.769461        -2.097626         2.312935
 H        -2.987282        -1.737673         0.500465
 H        -1.378156        -0.381638         2.715589
