19
Iteration:   232charge 0 multiplicity 1
 O         0.313677        -0.212336         0.385911
 C        -0.806921         0.306783         0.954487
 C        -1.946139         0.788906         0.020763
 C        -2.436856         0.920903         1.491829
 C        -1.168290         1.568342         1.906856
 C        -3.876571         0.836034         1.831064
 O        -4.088686        -0.492715         1.525072
 C        -3.009736        -1.383107         1.470598
 C        -1.853409        -0.488139         1.844763
 H         1.216737         0.233348         0.738123
 H        -1.863959         1.696340        -0.456655
 H        -2.354646        -0.037554        -0.613157
 H        -0.887193         2.549589         1.413790
 H        -0.930693         1.491661         2.965043
 H        -4.114972         1.102222         2.979634
 H        -4.561480         1.429332         1.186850
 H        -3.169878        -2.228381         2.208527
 H        -2.954060        -1.755102         0.471102
 H        -1.473261        -0.514322         2.880862
