19
Iteration:  3314
 O         0.416527        -0.085487         0.374101
 C        -0.843353         0.315185         0.930283
 C        -1.989933         0.706050        -0.011670
 C        -2.477870         0.913336         1.469661
 C        -1.124586         1.635236         1.819405
 C        -3.898016         0.878011         1.855066
 O        -4.170935        -0.538402         1.509364
 C        -2.975829        -1.375345         1.653803
 C        -1.722172        -0.494057         1.849112
 H         0.576677        -1.106343         0.373719
 H        -1.944761         1.643026        -0.612307
 H        -2.472233        -0.192078        -0.664595
 H        -1.105674         2.581445         1.321980
 H        -0.919679         1.526009         2.911129
 H        -4.119458         1.019244         2.968849
 H        -4.665898         1.438564         1.293600
 H        -3.131997        -2.034000         2.510456
 H        -3.039809        -1.924207         0.659457
 H        -1.385986        -0.614757         2.908827
