19
Iteration:   877charge 0 multiplicity 1
 O         0.396505        -0.120666         0.413148
 C        -0.815296         0.378613         0.905433
 C        -2.055588         0.927215         0.121331
 C        -2.422770         0.873086         1.617591
 C        -0.947804         1.520352         1.982209
 C        -3.872422         0.831801         1.853402
 O        -4.150564        -0.480632         1.376516
 C        -3.103552        -1.385292         1.368287
 C        -1.841354        -0.614853         1.810445
 H         0.713994        -1.008768         0.811634
 H        -2.153307         1.927125        -0.342364
 H        -2.530561         0.312703        -0.625906
 H        -0.819791         2.514254         1.650882
 H        -0.658208         1.350619         3.096255
 H        -4.211133         0.976005         2.849417
 H        -4.418215         1.474448         1.232852
 H        -3.345016        -2.115985         2.112246
 H        -3.003057        -1.995410         0.475954
 H        -1.467017        -0.890753         2.790442
