19
Iteration:  2002charge 0 multiplicity 1
 O         0.433256        -0.068398         0.407761
 C        -0.790764         0.298334         0.916662
 C        -1.949610         0.910040         0.033109
 C        -2.438277         0.908805         1.464686
 C        -1.097154         1.503087         1.949150
 C        -3.819816         0.888105         1.987443
 O        -4.263330        -0.472999         1.427966
 C        -3.068425        -1.486214         1.402558
 C        -1.835108        -0.573720         1.788281
 H         0.606943        -0.843903         0.925371
 H        -1.535312         1.870096        -0.355053
 H        -2.545548         0.233812        -0.527302
 H        -1.017581         2.552127         1.675074
 H        -0.802875         1.365040         3.064746
 H        -3.876521         0.933605         3.069612
 H        -4.624815         1.543135         1.603204
 H        -3.216558        -2.405471         2.069217
 H        -3.025496        -1.894967         0.392844
 H        -1.358511        -0.777170         2.794448
