19
Iteration:   634charge 0 multiplicity 1
 O         0.495354        -0.120491         0.571076
 C        -0.800173         0.284314         0.940116
 C        -1.964206         0.865561         0.020712
 C        -2.422947         0.903131         1.485248
 C        -1.010734         1.409602         1.954068
 C        -3.862130         0.842395         1.888946
 O        -4.277543        -0.547540         1.571576
 C        -3.130158        -1.311094         1.286788
 C        -1.877140        -0.506361         1.739642
 H         0.785759         0.442445        -0.260290
 H        -1.817936         1.900478        -0.378066
 H        -2.620082         0.155476        -0.561255
 H        -0.603712         2.482391         1.573133
 H        -0.590362         1.240619         2.969850
 H        -3.904435         1.014576         3.005583
 H        -4.589555         1.441331         1.322544
 H        -3.100182        -2.206430         1.878167
 H        -3.230088        -1.572178         0.230538
 H        -1.671501        -0.778326         2.757433
