19
Iteration:  3668
 O         0.498099        -0.187180         0.468298
 C        -0.765478         0.299274         0.897866
 C        -1.993018         0.797906        -0.022696
 C        -2.474606         0.971966         1.377966
 C        -1.202667         1.580986         1.819518
 C        -3.801596         0.827748         1.935231
 O        -4.215664        -0.547948         1.682675
 C        -3.035002        -1.430702         1.447930
 C        -1.881326        -0.485666         1.802991
 H         1.142849         0.420314         0.526489
 H        -1.951440         1.723605        -0.622306
 H        -2.281989         0.012689        -0.722126
 H        -0.979846         2.527875         1.387571
 H        -1.103997         1.720977         2.902921
 H        -3.712328         1.070301         2.998464
 H        -4.584154         1.458759         1.435320
 H        -2.993585        -2.367337         1.923848
 H        -3.122306        -1.626303         0.383525
 H        -1.753884        -0.636813         2.867682
