19
Iteration:  3347charge 0 multiplicity 1
 O         0.525883        -0.074860         0.453151
 C        -0.787294         0.291931         0.927287
 C        -2.004743         0.680716        -0.065973
 C        -2.458058         0.951421         1.380925
 C        -1.034339         1.657282         1.686759
 C        -3.862755         0.827801         2.027923
 O        -4.278617        -0.582199         1.578151
 C        -3.094515        -1.420042         1.538595
 C        -1.907825        -0.475342         1.840047
 H         1.304435         0.223230         1.094090
 H        -1.823296         1.569265        -0.723610
 H        -2.531706        -0.241167        -0.639600
 H        -0.762718         2.583070         1.193073
 H        -0.617006         1.716452         2.747381
 H        -3.584309         0.943242         3.148082
 H        -4.743154         1.439807         1.743611
 H        -3.273339        -2.326409         2.132867
 H        -3.221061        -1.749466         0.452160
 H        -1.579892        -0.524236         2.918254
