19
Iteration:  1355charge 0 multiplicity 1
 O         0.529123        -0.125191         0.471632
 C        -0.753552         0.321819         0.936506
 C        -1.861949         0.928456         0.034973
 C        -2.460302         0.865096         1.496826
 C        -1.035283         1.361895         2.057100
 C        -3.984980         0.842232         1.866235
 O        -4.252556        -0.556682         1.782376
 C        -3.182061        -1.267073         1.150575
 C        -1.871724        -0.567379         1.598836
 H         1.214913         0.336386         0.908999
 H        -1.609791         1.866083        -0.444406
 H        -2.232716         0.238318        -0.756079
 H        -0.854681         2.361575         1.745024
 H        -0.772294         1.191578         3.101261
 H        -4.257795         1.124884         2.941761
 H        -4.618779         1.500668         1.155721
 H        -3.251306        -2.378245         1.414654
 H        -3.252860        -1.247971         0.076664
 H        -1.657980        -0.623373         2.705429
