19
Iteration:  2568charge 0 multiplicity 1
 O         0.549454        -0.047203         0.620264
 C        -0.833948         0.298476         0.863978
 C        -1.929565         0.888278        -0.030532
 C        -2.429734         0.906891         1.507997
 C        -1.068619         1.518511         1.854006
 C        -3.855254         0.830056         1.895091
 O        -4.306277        -0.568644         1.711492
 C        -3.063771        -1.420434         1.227644
 C        -1.903026        -0.508133         1.768115
 H         0.396956        -0.702032        -0.070299
 H        -1.856570         1.975351        -0.436290
 H        -2.454250         0.085605        -0.695738
 H        -0.664731         2.391421         1.422069
 H        -0.787916         1.296919         2.940767
 H        -3.862583         1.035398         2.989230
 H        -4.523205         1.506409         1.353295
 H        -3.162812        -2.254367         1.898532
 H        -3.145460        -1.632117         0.112225
 H        -1.488401        -0.721529         2.753571
