19
Iteration:    29
 O         0.588234         0.084033         0.584614
 C        -0.759444         0.271541         0.842994
 C        -2.021912         0.625373        -0.068425
 C        -2.476655         0.886431         1.438846
 C        -1.122500         1.498631         1.746342
 C        -3.814222         0.870680         1.970900
 O        -4.290038        -0.463832         1.680299
 C        -3.152145        -1.387884         1.371252
 C        -1.825055        -0.558182         1.746600
 H         0.875428        -0.290888         1.341364
 H        -1.798261         1.505852        -0.728651
 H        -2.337728        -0.193372        -0.719325
 H        -0.884628         2.417346         1.236680
 H        -0.928476         1.356319         2.877100
 H        -3.866994         1.152079         3.106989
 H        -4.548523         1.618273         1.595680
 H        -3.322976        -2.215146         2.076979
 H        -3.274535        -1.632176         0.291915
 H        -1.286794        -0.825207         2.699941
