19
Iteration:  3752charge 0 multiplicity 1
 O         0.434011        -0.118879         0.454805
 C        -0.724279         0.394968         0.871713
 C        -1.826929         0.796606        -0.062292
 C        -2.491951         0.920013         1.394963
 C        -1.212149         1.560673         1.964956
 C        -3.985560         0.835136         1.690637
 O        -4.117941        -0.556597         1.994038
 C        -3.022217        -1.400682         1.434067
 C        -1.837737        -0.518873         1.651074
 H         0.281453        -1.074074         0.194853
 H        -1.641652         1.845236        -0.508518
 H        -2.309200         0.168429        -0.734359
 H        -1.049687         2.593819         1.519706
 H        -0.921937         1.476662         3.024056
 H        -4.331895         1.423715         2.551900
 H        -4.616012         1.118651         0.849175
 H        -2.931737        -2.290510         2.055498
 H        -3.384239        -1.679688         0.423654
 H        -1.599693        -0.538788         2.715144
