19
Iteration:   667
 O         0.532668        -0.216175         0.534100
 C        -0.766416         0.274774         0.974944
 C        -1.749676         0.900516         0.004911
 C        -2.505006         0.898290         1.459860
 C        -1.194119         1.524888         1.991622
 C        -3.911052         0.831940         1.940839
 O        -4.246216        -0.556564         1.728977
 C        -3.102638        -1.294767         1.186702
 C        -1.878139        -0.506270         1.657549
 H         0.351536        -0.285231        -0.510644
 H        -1.526435         1.949918        -0.405047
 H        -2.322972         0.383223        -0.813165
 H        -0.930290         2.536613         1.456131
 H        -0.941547         1.361735         3.082061
 H        -3.954789         1.148800         3.004475
 H        -4.669042         1.435361         1.431691
 H        -2.936379        -2.200684         1.708373
 H        -3.322226        -1.531328         0.151677
 H        -1.708115        -0.705945         2.701342
