19
Iteration:  2636
 O         0.390444        -0.155271         0.370564
 C        -0.790659         0.266479         0.938395
 C        -1.977494         0.829507         0.074929
 C        -2.492737         0.971968         1.579300
 C        -1.036650         1.532578         1.887056
 C        -3.923705         0.783840         1.922791
 O        -4.180254        -0.536242         1.430289
 C        -2.976791        -1.354338         1.383255
 C        -1.867013        -0.432233         1.853403
 H         1.076125        -0.492509         1.084224
 H        -2.060414         1.862085        -0.378310
 H        -2.466986         0.065846        -0.594227
 H        -0.826154         2.481679         1.396219
 H        -0.664443         1.471947         2.887140
 H        -4.197599         0.859778         2.985858
 H        -4.586831         1.398033         1.289917
 H        -3.078999        -2.068746         2.211065
 H        -2.926674        -1.757729         0.357533
 H        -1.518197        -0.641051         2.867587
