19
Iteration:  1440
 O         0.363992        -0.154842         0.352130
 C        -0.822573         0.272115         0.966563
 C        -1.925565         0.937292         0.166204
 C        -2.462355         1.022761         1.637038
 C        -0.968624         1.474743         1.953219
 C        -3.928218         0.736858         1.952173
 O        -4.188901        -0.473413         1.309603
 C        -3.043580        -1.374807         1.306564
 C        -1.864673        -0.484541         1.840509
 H         0.689658        -1.102147         0.653757
 H        -1.530154         1.844267        -0.259164
 H        -2.407689         0.350314        -0.678790
 H        -0.725715         2.586291         1.534545
 H        -0.829354         1.397949         3.035931
 H        -4.028193         0.566480         3.013951
 H        -4.752554         1.310975         1.607321
 H        -3.233449        -2.138525         2.111841
 H        -2.955544        -1.754847         0.290306
 H        -1.509444        -0.726088         2.823263
