19
Iteration:    28charge 0 multiplicity 1
 O         0.578771         0.082986         0.581044
 C        -0.764492         0.279769         0.845635
 C        -2.034390         0.626677        -0.061988
 C        -2.472598         0.889614         1.438739
 C        -1.115870         1.501155         1.757792
 C        -3.796702         0.870288         1.962035
 O        -4.282060        -0.465141         1.676428
 C        -3.150434        -1.395801         1.365160
 C        -1.833998        -0.555553         1.747735
 H         0.908167        -0.333994         1.408668
 H        -1.818621         1.505684        -0.744263
 H        -2.368549        -0.248065        -0.726499
 H        -0.885974         2.436980         1.233376
 H        -0.917530         1.370668         2.863709
 H        -3.854564         1.170317         3.129260
 H        -4.546427         1.635650         1.568706
 H        -3.315785        -2.238250         2.101132
 H        -3.272684        -1.669088         0.275535
 H        -1.319050        -0.813346         2.708533
