19
Iteration:  1699charge 0 multiplicity 1
 O         0.406649        -0.208542         0.541548
 C        -0.821559         0.304048         0.954857
 C        -1.949464         0.909907         0.047917
 C        -2.438117         0.916843         1.515600
 C        -1.085944         1.532240         1.926756
 C        -3.807711         0.794813         1.999036
 O        -4.200806        -0.510780         1.420362
 C        -3.103378        -1.385236         1.368114
 C        -1.821324        -0.523000         1.708084
 H         0.563373         0.333872        -0.189614
 H        -1.796827         1.876245        -0.444470
 H        -2.481784         0.284143        -0.695730
 H        -0.804304         2.601341         1.473129
 H        -0.788635         1.585447         3.029193
 H        -3.805694         0.811978         3.098605
 H        -4.570435         1.465960         1.596609
 H        -3.272354        -2.193037         2.025330
 H        -3.218573        -1.832623         0.333305
 H        -1.453440        -0.738398         2.739341
