19
Iteration:  1738charge 0 multiplicity 1
 O         0.355193        -0.300515         0.400990
 C        -0.884306         0.265785         0.942818
 C        -2.067372         0.911682         0.154512
 C        -2.422711         1.004041         1.620391
 C        -0.991605         1.555664         1.939657
 C        -3.961656         0.772324         1.935959
 O        -4.095934        -0.522310         1.291406
 C        -3.008166        -1.312020         1.375517
 C        -1.823100        -0.463206         1.856152
 H         0.957419         0.495387         0.008727
 H        -1.866553         1.782930        -0.469800
 H        -2.673659         0.151799        -0.409447
 H        -0.505531         2.359086         1.561938
 H        -0.656234         1.360617         2.978212
 H        -4.177460         0.642732         3.018835
 H        -4.661906         1.508186         1.466312
 H        -3.076820        -2.163192         2.164620
 H        -2.782427        -1.770655         0.416397
 H        -1.467377        -0.729373         2.877843
