19
Iteration:  1442
 O         0.359040        -0.144456         0.350753
 C        -0.836165         0.254956         0.986893
 C        -1.927852         0.941831         0.160639
 C        -2.477987         1.025184         1.635124
 C        -0.946302         1.472664         1.928099
 C        -3.930616         0.726063         1.952578
 O        -4.182156        -0.482881         1.300939
 C        -3.048142        -1.357601         1.311477
 C        -1.836995        -0.481924         1.855336
 H         0.685775        -1.155428         0.623388
 H        -1.492504         1.853917        -0.225760
 H        -2.417272         0.462453        -0.704500
 H        -0.735648         2.540410         1.537553
 H        -0.827774         1.422499         3.070766
 H        -4.105602         0.508465         3.030172
 H        -4.755140         1.393550         1.568661
 H        -3.275853        -2.159885         2.124228
 H        -2.989614        -1.744533         0.317522
 H        -1.534656        -0.762679         2.856478
