19
Iteration:  4680charge 0 multiplicity 1
 O         0.398521        -0.234111         0.490741
 C        -0.807897         0.342284         0.824902
 C        -1.936013         0.888401        -0.075027
 C        -2.484946         0.967987         1.416760
 C        -1.081047         1.639690         1.770193
 C        -3.940305         0.784507         1.942754
 O        -4.194368        -0.606047         1.588181
 C        -2.972743        -1.427438         1.526956
 C        -1.837150        -0.380417         1.853388
 H         0.566118        -1.001901         1.203763
 H        -1.671582         1.811857        -0.538742
 H        -2.363018         0.205602        -0.769802
 H        -0.918744         2.600375         1.238503
 H        -0.698107         1.642751         2.819667
 H        -3.964086         0.918027         3.076982
 H        -4.865973         1.316366         1.553671
 H        -2.982897        -2.260975         2.271958
 H        -2.903569        -1.748080         0.517757
 H        -1.411448        -0.533532         2.837952
