19
Iteration:  4698
 O         0.387899        -0.008258         0.478324
 C        -0.866762         0.245420         0.969424
 C        -1.961012         0.693107        -0.038397
 C        -2.451935         0.992135         1.441199
 C        -1.029550         1.565989         1.706851
 C        -3.835399         0.734559         1.999258
 O        -4.233128        -0.575738         1.509616
 C        -3.020134        -1.354698         1.479453
 C        -1.893198        -0.409050         1.841390
 H         0.939278        -0.792544         0.970640
 H        -1.709641         1.649570        -0.651563
 H        -2.451710        -0.085946        -0.639303
 H        -0.644392         2.444881         1.149836
 H        -0.582851         1.482494         2.705272
 H        -3.836695         0.911443         3.072297
 H        -4.525859         1.549975         1.644904
 H        -3.082693        -2.024290         2.347348
 H        -2.940009        -1.855077         0.469069
 H        -1.620051        -0.254704         2.928076
