19
Iteration:   272charge 0 multiplicity 1
 O         0.430817        -0.364864         0.420993
 C        -0.827734         0.275174         0.925004
 C        -2.041298         0.970397         0.102608
 C        -2.525728         0.995938         1.535258
 C        -0.938532         1.567790         1.805164
 C        -4.030500         0.748240         1.824181
 O        -4.127074        -0.584905         1.471488
 C        -2.974808        -1.362695         1.507546
 C        -1.874827        -0.355572         1.888801
 H         1.017041         0.424296         0.336550
 H        -1.851457         2.050608        -0.306276
 H        -2.512127         0.290220        -0.644816
 H        -0.456801         2.551060         1.503754
 H        -0.612350         1.344779         2.800094
 H        -4.368266         0.920548         2.818423
 H        -4.571841         1.299168         1.082734
 H        -3.052216        -2.201813         2.169168
 H        -2.889610        -1.923502         0.525190
 H        -1.669489        -0.354034         2.970289
