19
Iteration:  2053
 O         0.296750        -0.253285         0.290151
 C        -0.843796         0.283161         0.995456
 C        -1.971114         1.015577         0.146262
 C        -2.421383         0.982438         1.635898
 C        -0.917661         1.567508         1.918147
 C        -3.932311         0.739112         1.890403
 O        -4.194684        -0.541954         1.304077
 C        -2.993742        -1.378929         1.375007
 C        -1.879280        -0.487984         1.940140
 H         1.057384        -0.295135         1.086614
 H        -2.018548         2.060986        -0.082354
 H        -2.457581         0.265420        -0.577025
 H        -0.541356         2.361271         1.346245
 H        -0.468932         1.622957         2.965791
 H        -4.278994         0.721002         2.987739
 H        -4.640678         1.387863         1.372437
 H        -3.047312        -2.347195         1.885378
 H        -2.752014        -1.701993         0.256579
 H        -1.646148        -0.716026         3.021218
