19
Iteration:  1801
 O         0.471228        -0.227660         0.551720
 C        -0.749052         0.309000         0.856209
 C        -2.024395         0.958458         0.012190
 C        -2.453397         0.864385         1.533343
 C        -1.106800         1.568134         2.016327
 C        -3.878310         0.843638         1.968306
 O        -4.235570        -0.498710         1.502656
 C        -3.015312        -1.408293         1.344852
 C        -1.857025        -0.557444         1.687878
 H         0.827830         0.144067        -0.393208
 H        -1.993190         1.901891        -0.504610
 H        -2.502393         0.192394        -0.592833
 H        -0.720627         2.583176         1.597519
 H        -0.721523         1.288215         2.987333
 H        -4.046779         0.853496         3.050247
 H        -4.360563         1.690033         1.493826
 H        -3.228454        -2.194495         1.973859
 H        -3.065924        -1.782636         0.335753
 H        -1.613537        -0.706112         2.756678
