19
Iteration:  3486charge 0 multiplicity 1
 O         0.448881        -0.058227         0.511031
 C        -0.782199         0.255878         0.896225
 C        -1.882221         0.736421        -0.075249
 C        -2.476924         0.860999         1.344135
 C        -1.089575         1.499562         1.720536
 C        -3.883972         0.814766         1.918015
 O        -4.275677        -0.605042         1.868604
 C        -3.079011        -1.262465         1.364061
 C        -1.845518        -0.461550         1.774834
 H         1.116807         0.409196         1.092669
 H        -1.662169         1.634395        -0.512073
 H        -2.240925         0.117996        -0.937241
 H        -1.000619         2.523166         1.386055
 H        -0.775278         1.504724         2.801616
 H        -3.756511         1.135394         2.956572
 H        -4.591809         1.489904         1.381517
 H        -3.047616        -2.302749         1.840873
 H        -3.129008        -1.458313         0.309463
 H        -1.881370        -0.485383         2.900735
