19
Iteration:  2226charge 0 multiplicity 1
 O         0.421122        -0.194812         0.452957
 C        -0.827606         0.344569         0.888746
 C        -1.873609         0.939328         0.066290
 C        -2.463602         0.923662         1.553967
 C        -1.047656         1.481614         1.983976
 C        -3.934147         0.803523         1.792467
 O        -4.183017        -0.584167         1.767686
 C        -3.061362        -1.309701         1.204672
 C        -1.834095        -0.477454         1.665788
 H         0.649944        -0.872942         1.167925
 H        -1.773989         1.987396        -0.276139
 H        -2.455514         0.267359        -0.634657
 H        -0.789180         2.553529         1.715735
 H        -0.872105         1.172222         3.086568
 H        -4.329353         1.103717         2.782971
 H        -4.420033         1.419533         1.029075
 H        -3.072432        -2.320923         1.521907
 H        -3.384138        -1.298229         0.160298
 H        -1.520234        -0.727800         2.647969
