19
Iteration:  3209charge 0 multiplicity 1
 O         0.554435        -0.160783         0.626306
 C        -0.806452         0.309303         0.823935
 C        -2.093164         0.724991        -0.055896
 C        -2.478733         0.943425         1.446038
 C        -1.033160         1.566408         1.659067
 C        -3.917889         0.844640         1.945310
 O        -4.294717        -0.584241         1.666821
 C        -3.004386        -1.391747         1.479380
 C        -1.831257        -0.384896         1.772155
 H         1.122552         0.488202         0.400290
 H        -2.022887         1.592896        -0.656609
 H        -2.550567        -0.125196        -0.473588
 H        -0.760580         2.486619         1.076886
 H        -0.582351         1.595436         2.693967
 H        -3.937625         1.052960         3.020573
 H        -4.683257         1.423571         1.387402
 H        -3.058792        -2.133795         2.349039
 H        -2.941306        -1.910746         0.519717
 H        -1.430048        -0.611887         2.757205
