19
Iteration:   170
 O         0.523463        -0.075952         0.586040
 C        -0.802169         0.257534         0.853606
 C        -1.995050         0.759120        -0.054372
 C        -2.420016         0.901140         1.401557
 C        -1.209428         1.605286         1.787931
 C        -3.785429         0.852691         1.944062
 O        -4.266431        -0.469437         1.674317
 C        -3.022303        -1.457667         1.416578
 C        -1.855780        -0.505385         1.691367
 H         0.911559        -0.852848         1.264744
 H        -2.004486         1.871444        -0.528419
 H        -2.504066         0.083312        -0.811249
 H        -0.915912         2.492368         1.309709
 H        -1.004380         1.481994         2.910916
 H        -3.797856         1.041857         3.022235
 H        -4.452178         1.607767         1.469923
 H        -3.110297        -2.240870         2.204820
 H        -3.172842        -1.751586         0.340384
 H        -1.643861        -0.668154         2.760633
