19
Iteration:  2558charge 0 multiplicity 1
 O         0.449797        -0.038163         0.557749
 C        -0.832226         0.315094         0.963705
 C        -1.916808         0.877743         0.002727
 C        -2.469489         0.861244         1.528854
 C        -1.063187         1.457568         1.837505
 C        -3.893192         0.876993         1.884214
 O        -4.211245        -0.569966         1.723414
 C        -3.003344        -1.351448         1.259813
 C        -1.917478        -0.526419         1.688527
 H         0.481798        -1.024929         0.364500
 H        -1.498990         1.826433        -0.483351
 H        -2.352259         0.340085        -0.926983
 H        -0.747884         2.357583         1.419201
 H        -0.782680         1.446464         2.904350
 H        -4.119086         1.089061         2.938769
 H        -4.565440         1.477719         1.260554
 H        -2.982863        -2.323802         1.773932
 H        -3.069465        -1.541660         0.149157
 H        -1.697998        -0.754196         2.728375
