19
Iteration:  2746charge 0 multiplicity 1
 O         0.456576        -0.026166         0.507264
 C        -0.861977         0.229904         0.861715
 C        -1.992578         0.746220        -0.025600
 C        -2.424156         0.853604         1.451339
 C        -1.106420         1.570757         1.814578
 C        -3.871504         0.801279         1.919549
 O        -4.217017        -0.510925         1.621230
 C        -3.063468        -1.322965         1.397743
 C        -1.818423        -0.537668         1.803624
 H         1.051975        -0.202305         1.401578
 H        -1.601882         1.722453        -0.534463
 H        -2.573457         0.143039        -0.711769
 H        -0.759072         2.628692         1.537553
 H        -0.848221         1.426212         2.858686
 H        -3.966533         0.986225         3.017736
 H        -4.481107         1.519546         1.328984
 H        -3.201196        -2.351692         1.860116
 H        -2.992117        -1.435301         0.299130
 H        -1.469204        -0.650237         2.807938
