19
Iteration:  2085charge 0 multiplicity 1
 O         0.372647        -0.255502         0.397906
 C        -0.831435         0.356006         0.892378
 C        -1.973164         0.883462         0.023444
 C        -2.466192         0.985689         1.525636
 C        -1.078528         1.507150         2.080622
 C        -3.862708         0.808142         2.013196
 O        -4.193000        -0.461011         1.369547
 C        -2.998819        -1.397721         1.339039
 C        -1.822700        -0.493582         1.767244
 H         1.022941        -0.013643         0.967973
 H        -2.145024         1.788239        -0.519826
 H        -2.465943         0.033154        -0.581022
 H        -0.722772         2.451574         1.778866
 H        -0.894149         1.249594         3.167944
 H        -3.990589         0.802565         3.161072
 H        -4.598149         1.428997         1.507233
 H        -3.022925        -2.117461         2.105402
 H        -2.882402        -1.810904         0.295269
 H        -1.441745        -0.847792         2.725312
