19
Iteration:  4015charge 0 multiplicity 1
 O         0.383097        -0.180616         0.461598
 C        -0.797595         0.297603         0.962693
 C        -1.894355         0.815098        -0.092807
 C        -2.483179         0.887126         1.361546
 C        -0.975535         1.643998         1.719335
 C        -3.984491         0.773115         1.687520
 O        -4.161912        -0.662523         1.957887
 C        -3.027183        -1.357806         1.500672
 C        -1.895393        -0.396940         1.893212
 H         0.923009         0.735570         0.131975
 H        -1.789925         1.787745        -0.512670
 H        -2.368204         0.141131        -0.869592
 H        -0.678531         2.523527         1.179111
 H        -0.856697         1.653138         2.814243
 H        -4.377519         1.372796         2.552753
 H        -4.499890         0.909501         0.758987
 H        -3.053512        -2.283335         2.110589
 H        -3.069957        -1.545987         0.395714
 H        -1.740685        -0.475260         2.958657
