19
Iteration:  2668charge 0 multiplicity 1
 O         0.346556        -0.202277         0.433230
 C        -0.805458         0.327969         0.953964
 C        -2.018676         0.875830         0.054207
 C        -2.444835         0.974371         1.587272
 C        -1.037122         1.588704         1.916596
 C        -3.880311         0.733567         1.848416
 O        -4.147355        -0.566113         1.407254
 C        -2.966035        -1.322112         1.431886
 C        -1.822134        -0.436764         1.878925
 H         0.085497        -1.001388         0.074405
 H        -2.129291         1.959440        -0.331601
 H        -2.479614         0.072343        -0.641322
 H        -0.852932         2.561631         1.415737
 H        -0.646900         1.568137         2.982087
 H        -4.229335         0.892800         2.893619
 H        -4.557266         1.350666         1.228756
 H        -3.086163        -2.181355         2.115069
 H        -2.865179        -1.935974         0.493782
 H        -1.392705        -0.599766         2.864426
