19
Iteration:  3372charge 0 multiplicity 1
 O         0.462667        -0.127856         0.660947
 C        -0.870859         0.263663         0.803213
 C        -2.030164         0.707505        -0.091211
 C        -2.438458         0.904582         1.489379
 C        -1.146774         1.528258         1.661107
 C        -3.864531         0.871912         1.943821
 O        -4.200530        -0.541552         1.728406
 C        -2.953970        -1.362101         1.407728
 C        -1.817867        -0.453020         1.763985
 H         0.971514         0.493601         0.204312
 H        -1.887702         1.735049        -0.526832
 H        -2.500525         0.022567        -0.726820
 H        -0.987432         2.598829         1.375878
 H        -0.748310         1.455689         2.682047
 H        -3.918582         1.192690         3.020482
 H        -4.536776         1.517675         1.323044
 H        -3.073982        -2.224305         2.075956
 H        -3.295761        -1.755784         0.470699
 H        -1.411147        -0.575060         2.744583
