19
Iteration:  3017
 O         0.469282        -0.205762         0.493244
 C        -0.827505         0.358604         0.853908
 C        -2.084850         0.698421        -0.063566
 C        -2.482122         0.933270         1.491508
 C        -1.157437         1.591500         1.767846
 C        -3.873016         0.883599         1.931876
 O        -4.226474        -0.551600         1.469475
 C        -2.970623        -1.411876         1.611261
 C        -1.747711        -0.438057         1.845788
 H         1.100320         0.613530         0.620160
 H        -1.913175         1.592719        -0.722678
 H        -2.647560        -0.044211        -0.493934
 H        -0.784014         2.660501         1.484518
 H        -0.773045         1.309789         2.737284
 H        -4.051608         0.977170         3.022491
 H        -4.553741         1.504752         1.384632
 H        -3.104419        -2.119002         2.415638
 H        -2.831521        -1.970675         0.629211
 H        -1.277191        -0.510466         2.849609
