19
Iteration:   321
 O         0.582124        -0.205481         0.573916
 C        -0.738464         0.288872         0.918988
 C        -2.012700         0.719736        -0.062092
 C        -2.451921         0.916923         1.493971
 C        -1.161863         1.637320         1.842628
 C        -3.932415         0.823497         2.038369
 O        -4.241578        -0.441139         1.491533
 C        -3.053245        -1.352174         1.359314
 C        -1.816179        -0.515628         1.784491
 H         0.661833        -0.051100        -0.361685
 H        -1.817224         1.617511        -0.484639
 H        -2.570998        -0.048357        -0.518075
 H        -1.124719         2.576365         1.308597
 H        -0.819329         1.808028         2.937447
 H        -3.860565         0.780712         3.238379
 H        -4.780361         1.505889         1.679858
 H        -3.133929        -2.260285         1.999025
 H        -3.127759        -1.785462         0.400038
 H        -1.533997        -0.732182         2.847432
