19
Iteration:   949charge 0 multiplicity 1
 O         0.475898        -0.223964         0.511784
 C        -0.833473         0.221648         0.954154
 C        -1.971677         0.941573         0.004275
 C        -2.455125         0.867708         1.525539
 C        -1.113697         1.501791         1.923098
 C        -3.868074         0.856063         1.966627
 O        -4.226475        -0.508737         1.580650
 C        -3.062737        -1.289838         1.219517
 C        -1.830515        -0.553446         1.697616
 H         1.117151         0.254617         1.157184
 H        -1.682584         1.988651        -0.308759
 H        -2.504356         0.541711        -0.841098
 H        -0.708394         2.474071         1.435027
 H        -0.847931         1.339428         2.937182
 H        -4.055223         0.901239         3.089881
 H        -4.682777         1.555446         1.526138
 H        -3.037462        -2.265339         1.816092
 H        -3.157300        -1.501192         0.075843
 H        -1.476997        -0.832282         2.741535
