19
Iteration:  3786charge 0 multiplicity 1
 O         0.483708        -0.100159         0.538102
 C        -0.823003         0.296672         0.904731
 C        -1.892546         0.759104        -0.031933
 C        -2.479643         0.902121         1.427316
 C        -1.026496         1.546048         1.722546
 C        -3.993580         0.846488         1.841121
 O        -4.233577        -0.632365         1.852653
 C        -2.988973        -1.352228         1.433255
 C        -1.879175        -0.414893         1.771229
 H         0.630686        -0.180006        -0.324939
 H        -1.608088         1.732723        -0.549188
 H        -2.426192         0.150599        -0.728121
 H        -0.943250         2.556174         1.243179
 H        -0.666941         1.619601         2.803351
 H        -4.177851         1.176944         2.858807
 H        -4.735273         1.237730         1.169665
 H        -3.003594        -2.310700         1.894519
 H        -3.030858        -1.482810         0.314892
 H        -1.703977        -0.497315         2.863567
