19
Iteration:  2778
 O         0.523511        -0.120515         0.479526
 C        -0.754270         0.281261         0.920477
 C        -1.911388         0.844581        -0.001579
 C        -2.454127         0.930828         1.396582
 C        -1.047310         1.696782         1.908048
 C        -4.014381         0.827584         1.886466
 O        -4.209489        -0.612619         1.758987
 C        -3.073304        -1.431921         1.353425
 C        -1.902991        -0.464295         1.729978
 H         0.471329        -1.034684         0.365366
 H        -1.527477         1.719633        -0.666461
 H        -2.366332         0.090544        -0.610986
 H        -0.724994         2.724256         1.482378
 H        -0.935616         1.405055         2.915124
 H        -4.295669         1.161789         2.924458
 H        -4.615498         1.389888         1.136817
 H        -3.098590        -2.369107         1.962817
 H        -3.139452        -1.648408         0.231633
 H        -1.561181        -0.635887         2.730089
