19
Iteration:  3184
 O         0.527704        -0.107868         0.518116
 C        -0.791401         0.257180         0.893138
 C        -1.929569         0.787292        -0.080981
 C        -2.457066         0.953808         1.377307
 C        -1.032591         1.567984         1.718049
 C        -3.946084         0.809332         1.834558
 O        -4.276113        -0.580586         1.825061
 C        -3.062594        -1.434631         1.499256
 C        -1.897392        -0.449564         1.836943
 H         0.983919         0.702458         0.140058
 H        -1.654893         1.671123        -0.608925
 H        -2.371378        -0.073424        -0.711917
 H        -0.899301         2.531526         1.147733
 H        -0.643480         1.634065         2.802710
 H        -4.067364         1.194659         2.836750
 H        -4.644125         1.285232         1.130620
 H        -3.284826        -2.341456         2.131334
 H        -3.014371        -1.676577         0.386344
 H        -1.696094        -0.528978         2.927036
