19
Iteration:  3658charge 0 multiplicity 1
 O         0.476986        -0.177495         0.486400
 C        -0.786293         0.294966         0.941577
 C        -1.981972         0.781282        -0.016070
 C        -2.478697         0.947019         1.417981
 C        -1.091449         1.567973         1.768858
 C        -3.872363         0.831314         1.971283
 O        -4.227411        -0.576778         1.615599
 C        -2.997451        -1.407320         1.458381
 C        -1.904029        -0.429984         1.746740
 H         0.910168         0.643435         0.427628
 H        -1.674062         1.743322        -0.409823
 H        -2.629360         0.080751        -0.646954
 H        -0.929943         2.483671         1.246112
 H        -0.708822         1.438443         2.807912
 H        -3.968191         0.972258         3.062875
 H        -4.672573         1.494039         1.517827
 H        -3.108135        -2.168411         2.228192
 H        -2.940063        -1.866647         0.473173
 H        -1.591896        -0.495770         2.794998
