19
Iteration:  1837
 O         0.518474        -0.130787         0.545336
 C        -0.794861         0.256168         0.975987
 C        -1.865093         0.844655        -0.018513
 C        -2.413943         0.966210         1.476805
 C        -1.030688         1.483249         1.918858
 C        -3.940522         0.849093         2.036960
 O        -4.280857        -0.574535         1.679337
 C        -3.046951        -1.342209         1.159782
 C        -1.983691        -0.520946         1.681043
 H         0.775783         0.297437        -0.408935
 H        -1.692770         1.871071        -0.437066
 H        -2.411646         0.096500        -0.710946
 H        -0.687827         2.365591         1.438122
 H        -0.760534         1.492393         3.092221
 H        -4.001401         0.999660         3.145639
 H        -4.758803         1.493195         1.539140
 H        -3.110641        -2.353214         1.668682
 H        -2.959281        -1.512727         0.113108
 H        -1.950941        -0.617570         2.803815
