19
Iteration:  4462charge 0 multiplicity 1
 O         0.357978        -0.183262         0.280192
 C        -0.796258         0.331398         0.977680
 C        -1.936685         0.783231         0.029448
 C        -2.498344         0.990238         1.434329
 C        -0.916524         1.643348         1.832150
 C        -4.036947         0.791068         1.806874
 O        -4.197922        -0.681257         1.480436
 C        -2.909175        -1.372476         1.661917
 C        -1.884865        -0.334772         1.895709
 H         0.645438        -0.828842         0.905781
 H        -1.775868         1.731617        -0.543684
 H        -2.523429         0.129096        -0.538680
 H        -0.942801         2.645344         1.391796
 H        -0.620352         1.564251         2.866178
 H        -4.178550         1.016617         2.876521
 H        -4.706562         1.331008         1.221917
 H        -3.086907        -1.832454         2.686706
 H        -2.837862        -2.220278         0.973623
 H        -1.455274        -0.401994         2.917530
