19
Iteration:  4742charge 0 multiplicity 1
 O         0.414635        -0.008017         0.336687
 C        -0.734658         0.335520         0.906613
 C        -1.975099         0.685740         0.028549
 C        -2.396724         0.799173         1.595450
 C        -1.067838         1.590512         1.817428
 C        -3.860618         0.860064         1.784482
 O        -4.294637        -0.505811         1.478042
 C        -3.106254        -1.411030         1.594023
 C        -1.757550        -0.554838         1.860984
 H         1.095745        -0.050694         1.118330
 H        -1.792736         1.715186        -0.497800
 H        -2.593617        -0.036716        -0.509743
 H        -1.234100         2.605436         1.396529
 H        -0.732721         1.738715         2.847982
 H        -4.126778         1.139749         2.804987
 H        -4.489831         1.594005         1.196801
 H        -3.268313        -1.990029         2.525343
 H        -3.225072        -2.088356         0.688237
 H        -1.432873        -0.781061         2.930933
