19
Iteration:  2443
 O         0.506400         0.008882         0.526644
 C        -0.782373         0.260486         0.966383
 C        -1.860939         0.845156         0.021524
 C        -2.388405         0.877272         1.536513
 C        -1.139505         1.517773         1.883882
 C        -3.818825         0.838367         1.960389
 O        -4.338167        -0.553437         1.622917
 C        -3.147672        -1.353053         1.198392
 C        -1.849524        -0.574446         1.742716
 H         0.553276        -0.763759         0.067432
 H        -1.690030         1.749470        -0.542969
 H        -2.388007         0.188779        -0.634993
 H        -0.820663         2.546351         1.442823
 H        -0.790130         1.371872         2.881621
 H        -3.806176         0.975392         3.057987
 H        -4.424350         1.663097         1.533579
 H        -3.298180        -2.327051         1.757935
 H        -3.205834        -1.567720         0.096306
 H        -1.641218        -0.770505         2.836445
