19
Iteration:   925charge 0 multiplicity 1
 O         0.427067        -0.145551         0.436818
 C        -0.763667         0.367258         0.950220
 C        -1.825478         0.818606         0.066724
 C        -2.464826         0.972194         1.490792
 C        -0.984559         1.468051         1.977001
 C        -3.846231         0.760573         2.007082
 O        -4.298718        -0.512100         1.506608
 C        -3.146459        -1.394161         1.262263
 C        -1.954019        -0.436650         1.725211
 H         1.070803        -0.009830         0.998963
 H        -1.805231         1.611283        -0.635330
 H        -2.310712         0.073370        -0.624172
 H        -0.532755         2.522270         1.567441
 H        -0.700551         1.202533         2.979334
 H        -3.917930         0.724509         3.080072
 H        -4.755828         1.404442         1.702494
 H        -3.169654        -2.458850         1.687593
 H        -3.080835        -1.479836         0.161639
 H        -1.699418        -0.448433         2.830459
