19
Iteration:  2369
 O         0.291882        -0.198148         0.297627
 C        -0.845275         0.266769         0.958171
 C        -1.964898         0.965404         0.123026
 C        -2.443486         1.008228         1.620238
 C        -1.071801         1.549493         1.946447
 C        -3.874566         0.763957         1.941926
 O        -4.161878        -0.505189         1.314115
 C        -2.940781        -1.405917         1.384616
 C        -1.848767        -0.508193         1.895664
 H         0.706490        -0.746816         1.059636
 H        -1.426188         1.907616        -0.248399
 H        -2.442016         0.367494        -0.633286
 H        -0.851041         2.492473         1.551831
 H        -0.907490         1.371957         2.990367
 H        -4.162329         0.810155         3.017118
 H        -4.491338         1.530627         1.477542
 H        -3.146489        -2.305804         1.940402
 H        -2.761159        -1.768530         0.369574
 H        -1.395176        -0.791915         2.831906
