19
Iteration:   725
 O         0.580757        -0.120869         0.508714
 C        -0.779127         0.253627         0.919522
 C        -1.960980         1.004885         0.045961
 C        -2.424504         0.991448         1.497620
 C        -1.051690         1.461204         1.970532
 C        -3.930133         0.827221         1.796525
 O        -4.243223        -0.580769         1.775373
 C        -3.146497        -1.370520         1.173417
 C        -1.902443        -0.559704         1.703911
 H         0.583429        -1.122334         0.467084
 H        -1.645931         2.015783        -0.328134
 H        -2.597083         0.444862        -0.598592
 H        -0.730418         2.461873         1.788566
 H        -0.685368         1.332748         3.091926
 H        -4.182438         1.271987         2.844382
 H        -4.465837         1.343167         1.007573
 H        -3.187883        -2.369481         1.654443
 H        -3.227641        -1.428883         0.093747
 H        -1.579428        -0.733130         2.750534
