19
Iteration:  2977charge 0 multiplicity 1
 O         0.366892        -0.279940         0.451591
 C        -0.802792         0.306305         0.882756
 C        -1.975147         0.816437         0.023146
 C        -2.476083         1.097155         1.525670
 C        -1.090091         1.631867         1.776568
 C        -3.997763         0.787783         1.905524
 O        -4.196781        -0.601281         1.402523
 C        -2.882586        -1.484885         1.618399
 C        -1.799478        -0.371435         1.932363
 H         0.875063         0.161674        -0.265243
 H        -1.670016         1.655333        -0.556246
 H        -2.619416         0.043106        -0.544936
 H        -0.859792         2.494327         1.177242
 H        -0.641975         1.729145         2.778958
 H        -4.116724         0.738235         2.990918
 H        -4.672580         1.524808         1.407761
 H        -3.182494        -2.268056         2.355878
 H        -2.688991        -1.821388         0.638334
 H        -1.526955        -0.276103         2.977459
