19
Iteration:  4486charge 0 multiplicity 1
 O         0.288647        -0.276545         0.314482
 C        -0.824244         0.365074         0.946565
 C        -1.959761         0.846683         0.000728
 C        -2.460927         1.058692         1.521191
 C        -1.045802         1.645438         1.829256
 C        -3.980702         0.733472         1.695727
 O        -4.162134        -0.653154         1.599167
 C        -2.856379        -1.391055         1.617134
 C        -1.809916        -0.325339         1.933027
 H         0.518888        -0.951190         0.937100
 H        -1.968551         1.852938        -0.475882
 H        -2.425985         0.137740        -0.688673
 H        -0.719001         2.586615         1.437512
 H        -0.785004         1.431118         2.839197
 H        -4.490404         1.114051         2.623596
 H        -4.418629         1.294564         0.870287
 H        -3.084087        -2.191107         2.326030
 H        -2.780180        -1.898334         0.656372
 H        -1.286127        -0.410114         2.928988
