19
Iteration:  3435charge 0 multiplicity 1
 O         0.395919        -0.138300         0.418667
 C        -0.806997         0.297017         0.901785
 C        -1.892034         0.908016        -0.062843
 C        -2.480227         0.975039         1.392895
 C        -1.077513         1.541301         1.863471
 C        -4.002185         0.750259         1.667891
 O        -4.187186        -0.614217         1.917503
 C        -3.005684        -1.348249         1.480377
 C        -1.778574        -0.434280         1.855725
 H         0.347709        -1.016872         0.605373
 H        -1.664676         1.877432        -0.653850
 H        -2.277033         0.073105        -0.816474
 H        -0.675003         2.514848         1.505357
 H        -0.905505         1.396135         2.953613
 H        -4.259655         1.415464         2.548907
 H        -4.588877         1.026320         0.768132
 H        -2.893846        -2.350223         1.851912
 H        -3.060770        -1.329721         0.343620
 H        -1.509596        -0.546773         2.935746
