19
Iteration:  1495
 O         0.429467        -0.160297         0.462546
 C        -0.831679         0.299736         0.917864
 C        -1.984286         0.896498         0.083960
 C        -2.429840         0.854798         1.609062
 C        -1.085058         1.489413         2.068311
 C        -3.890934         0.843849         1.950729
 O        -4.237651        -0.411618         1.328257
 C        -2.971343        -1.344953         1.397779
 C        -1.776610        -0.571157         1.720875
 H         0.322907        -0.415168        -0.585319
 H        -1.894107         1.828658        -0.459585
 H        -2.489208         0.124837        -0.535009
 H        -0.778469         2.519471         1.598946
 H        -0.826432         1.360200         3.125717
 H        -4.108198         0.812343         2.996054
 H        -4.652776         1.429351         1.501563
 H        -3.194422        -2.116193         2.143381
 H        -2.977384        -1.900610         0.464031
 H        -1.496039        -0.817455         2.712513
