19
Iteration:   799charge 0 multiplicity 1
 O         0.539990        -0.194911         0.550089
 C        -0.762252         0.376538         0.828301
 C        -2.046540         0.866579         0.030984
 C        -2.470334         0.939053         1.613874
 C        -1.021180         1.509716         1.926344
 C        -3.955591         0.769990         1.990874
 O        -4.273569        -0.494707         1.483544
 C        -3.052032        -1.287329         1.274767
 C        -1.808372        -0.539457         1.696997
 H         0.537921        -1.024950         0.843748
 H        -1.772555         1.866565        -0.430713
 H        -2.644979         0.202599        -0.546878
 H        -0.753035         2.563606         1.673376
 H        -0.621272         1.166800         2.934837
 H        -4.070120         0.825802         3.049389
 H        -4.540646         1.505213         1.488306
 H        -3.095828        -2.217793         1.809230
 H        -3.109095        -1.482129         0.196182
 H        -1.462429        -0.700812         2.695099
