19
Iteration:  2846charge 0 multiplicity 1
 O         0.461819        -0.222034         0.525820
 C        -0.752123         0.312023         0.893460
 C        -1.899252         0.812057        -0.016043
 C        -2.449191         0.872586         1.462404
 C        -1.084819         1.606172         1.814152
 C        -3.948559         0.857602         1.821668
 O        -4.264172        -0.643473         1.858909
 C        -3.050006        -1.340795         1.295656
 C        -1.832477        -0.423811         1.773464
 H         1.111294         0.594062         0.393269
 H        -1.831461         1.780910        -0.594055
 H        -2.372236         0.061994        -0.747345
 H        -0.988428         2.624698         1.407073
 H        -0.890962         1.497574         2.860181
 H        -4.295635         1.396764         2.723796
 H        -4.525076         1.250197         0.936531
 H        -3.024893        -2.332327         1.871055
 H        -3.144050        -1.554142         0.219892
 H        -1.669019        -0.546692         2.851063
