19
Iteration:  3733charge 0 multiplicity 1
 O         0.518986        -0.105630         0.523622
 C        -0.834148         0.329739         0.849815
 C        -1.935165         0.940084        -0.059576
 C        -2.480804         0.925348         1.428132
 C        -1.067158         1.517508         1.802506
 C        -3.953277         0.784561         1.678057
 O        -4.178923        -0.619174         2.050511
 C        -3.065305        -1.356039         1.406376
 C        -1.867093        -0.484181         1.679067
 H         0.702100        -0.957558         0.924854
 H        -1.770105         1.911790        -0.572670
 H        -2.343225         0.244630        -0.808572
 H        -0.824026         2.534676         1.533249
 H        -0.785520         1.344008         2.859425
 H        -4.401073         1.404023         2.427081
 H        -4.516159         0.990580         0.746588
 H        -3.031826        -2.304239         1.887081
 H        -3.300085        -1.575963         0.308067
 H        -1.398570        -0.589849         2.712622
