19
Iteration:  1114charge 0 multiplicity 1
 O         0.449283        -0.141026         0.461356
 C        -0.776373         0.334351         0.895314
 C        -1.947263         0.864477         0.036769
 C        -2.424059         0.915249         1.561389
 C        -1.089231         1.444050         2.076185
 C        -3.893252         0.831801         1.950966
 O        -4.269376        -0.483833         1.491366
 C        -3.099354        -1.302814         1.256800
 C        -1.818703        -0.548301         1.636740
 H         0.777089        -0.673678         1.096388
 H        -1.767052         1.838249        -0.462039
 H        -2.388821         0.181166        -0.666177
 H        -0.861424         2.503481         1.831657
 H        -0.661738         1.095724         3.097986
 H        -3.918366         0.858276         3.022193
 H        -4.663934         1.524495         1.549969
 H        -3.028432        -2.107724         2.007339
 H        -3.049288        -1.616053         0.237975
 H        -1.407884        -0.779745         2.661751
