19
Iteration:  3425
 O         0.367741        -0.154217         0.408465
 C        -0.849680         0.286862         0.927600
 C        -1.787390         0.910772        -0.092399
 C        -2.486242         0.992261         1.389685
 C        -1.050936         1.560525         1.854834
 C        -4.030682         0.817091         1.698453
 O        -4.166633        -0.697404         1.938450
 C        -2.937127        -1.354278         1.451830
 C        -1.865106        -0.451111         1.900633
 H         0.363837        -1.003255         0.190205
 H        -1.392056         1.921240        -0.569851
 H        -2.157259         0.142608        -0.887464
 H        -0.896301         2.506544         1.281152
 H        -0.821570         1.675337         2.926056
 H        -4.425279         1.301723         2.668099
 H        -4.619541         1.238968         0.836959
 H        -3.213110        -2.332928         1.812800
 H        -2.991533        -1.428758         0.300690
 H        -1.642972        -0.258765         2.939758
