19
Iteration:  2048
 O         0.325507        -0.249119         0.282363
 C        -0.815333         0.292399         0.993160
 C        -2.002971         0.985666         0.146511
 C        -2.417369         1.011488         1.678172
 C        -0.912797         1.588120         1.959490
 C        -3.970558         0.794498         1.863941
 O        -4.211122        -0.570962         1.296191
 C        -2.954649        -1.401246         1.383944
 C        -1.888170        -0.527406         1.916255
 H         0.887604        -0.431690         0.943773
 H        -2.104748         2.060834        -0.191862
 H        -2.376415         0.201947        -0.458070
 H        -0.424217         2.414032         1.286708
 H        -0.470679         1.540649         2.921323
 H        -4.171934         0.715712         2.916925
 H        -4.698412         1.534677         1.459929
 H        -3.195617        -2.391744         1.829529
 H        -2.848471        -1.596967         0.385754
 H        -1.556319        -0.563700         2.938857
