19
Iteration:  3369
 O         0.462703        -0.116972         0.643839
 C        -0.882474         0.249810         0.827839
 C        -2.012423         0.720362        -0.066911
 C        -2.444984         0.913172         1.477912
 C        -1.127385         1.511282         1.638029
 C        -3.847890         0.847824         1.949373
 O        -4.206610        -0.522860         1.721819
 C        -2.965793        -1.365751         1.410936
 C        -1.817253        -0.451624         1.756105
 H         1.001165         0.660409         0.375364
 H        -1.889432         1.735974        -0.541117
 H        -2.564843        -0.065024        -0.780657
 H        -1.008261         2.520164         1.228338
 H        -0.792754         1.536531         2.717909
 H        -3.930868         1.063998         3.088792
 H        -4.532341         1.507238         1.364898
 H        -3.119140        -2.151802         2.155354
 H        -3.263828        -1.816021         0.403597
 H        -1.483456        -0.574257         2.825125
