19
Iteration:  2159
 O         0.483994        -0.146010         0.383991
 C        -0.727574         0.331441         0.901327
 C        -1.914425         0.901473         0.050608
 C        -2.429752         0.886099         1.521913
 C        -1.146839         1.463538         2.063246
 C        -3.890810         0.884792         1.849733
 O        -4.263796        -0.541005         1.778168
 C        -3.036300        -1.377290         1.201743
 C        -1.902972        -0.503110         1.636108
 H         0.974130        -0.567382         1.190305
 H        -1.642126         1.789218        -0.466825
 H        -2.258849         0.126196        -0.719757
 H        -0.911296         2.565430         1.785124
 H        -1.319373         1.258005         3.088691
 H        -4.072449         1.245635         2.855463
 H        -4.490909         1.475469         1.149483
 H        -3.133362        -2.366212         1.673240
 H        -3.151857        -1.425688         0.155261
 H        -1.598105        -0.863354         2.599507
