19
Iteration:  4554charge 0 multiplicity 1
 O         0.568688         0.021145         0.536741
 C        -0.823598         0.261080         0.881022
 C        -1.853728         0.740424        -0.143368
 C        -2.523745         1.002646         1.280231
 C        -1.114590         1.513816         1.702514
 C        -3.799679         0.810270         1.956661
 O        -4.265157        -0.543681         1.849942
 C        -3.139789        -1.446355         1.450994
 C        -1.935738        -0.524240         1.775938
 H         1.089097         0.248538         1.470141
 H        -1.665847         1.660872        -0.747677
 H        -2.406000         0.018392        -0.880799
 H        -0.686167         2.365164         1.204197
 H        -1.135939         1.534184         2.795629
 H        -3.740488         1.145165         3.038709
 H        -4.748334         1.255086         1.434610
 H        -3.224753        -2.316444         2.056691
 H        -3.243340        -1.839758         0.393489
 H        -1.470795        -0.712330         2.802876
