19
Iteration:   125charge 0 multiplicity 1
 O         0.346821        -0.227426         0.413888
 C        -0.810726         0.300996         1.007701
 C        -1.892801         0.874837         0.045306
 C        -2.438781         1.008807         1.503481
 C        -0.930853         1.678179         1.852115
 C        -3.990811         0.736328         1.733610
 O        -4.225551        -0.635522         1.785563
 C        -2.963444        -1.390767         1.316962
 C        -1.916894        -0.373115         1.799259
 H         0.723080        -1.122143         0.987543
 H        -1.536773         1.695759        -0.714245
 H        -2.485243         0.089270        -0.630833
 H        -0.746197         2.507214         1.145967
 H        -0.741972         1.946511         2.903450
 H        -4.451963         1.213867         2.647953
 H        -4.481734         1.196053         0.829253
 H        -2.902285        -2.252011         2.069563
 H        -3.040740        -1.655358         0.229808
 H        -1.613654        -0.548240         2.847843
