19
Iteration:  4467
 O         0.333379        -0.203229         0.279911
 C        -0.798070         0.357264         0.926635
 C        -1.924427         0.820175         0.070277
 C        -2.501275         0.945661         1.435247
 C        -0.901299         1.645106         1.871079
 C        -4.055193         0.794484         1.775856
 O        -4.193775        -0.701999         1.490862
 C        -2.927206        -1.343396         1.681743
 C        -1.855336        -0.336038         1.880890
 H         0.618898        -0.946180         0.927996
 H        -1.666840         1.626364        -0.627973
 H        -2.551270         0.033081        -0.505446
 H        -0.938311         2.615326         1.372048
 H        -0.570484         1.589725         2.932770
 H        -4.267979         1.158520         2.824120
 H        -4.921137         1.339820         1.201416
 H        -2.850906        -1.860571         2.629357
 H        -2.700288        -2.070436         0.871391
 H        -1.499783        -0.315478         2.927824
