19
Iteration:  4246charge 0 multiplicity 1
 O         0.451308        -0.112523         0.521178
 C        -0.817530         0.263249         0.859342
 C        -1.965740         0.703116        -0.012517
 C        -2.454937         1.028961         1.440907
 C        -1.013954         1.611689         1.700409
 C        -3.906762         0.757440         1.979263
 O        -4.281717        -0.591188         1.560208
 C        -3.035472        -1.414580         1.554914
 C        -1.837869        -0.408002         1.814808
 H         0.888144         0.676926         0.414657
 H        -1.794799         1.645378        -0.601346
 H        -2.351279        -0.034241        -0.675751
 H        -0.786462         2.548960         1.197075
 H        -0.718026         1.506123         2.731677
 H        -3.897003         0.844130         3.057719
 H        -4.684319         1.262579         1.428142
 H        -3.156566        -2.146555         2.313024
 H        -3.015993        -1.861046         0.534442
 H        -1.480102        -0.402849         2.853042
