19
Iteration:   921charge 0 multiplicity 1
 O         0.411367        -0.129413         0.389642
 C        -0.754281         0.350793         1.007406
 C        -1.836079         0.801704         0.033854
 C        -2.440389         0.951628         1.504359
 C        -0.992200         1.493832         1.977725
 C        -3.920125         0.765031         2.000207
 O        -4.274685        -0.506827         1.483581
 C        -3.148226        -1.358878         1.290676
 C        -1.927831        -0.445101         1.727915
 H         1.108052        -0.013546         1.253002
 H        -1.742057         1.644667        -0.677683
 H        -2.255306         0.055552        -0.676657
 H        -0.450967         2.330816         1.639858
 H        -0.656935         1.169607         3.057221
 H        -3.890724         0.679933         3.090046
 H        -4.719400         1.365730         1.750415
 H        -3.153644        -2.332425         1.691505
 H        -3.277258        -1.585221         0.245638
 H        -1.592281        -0.550921         2.740582
