19
Iteration:  2843
 O         0.458333        -0.219439         0.531917
 C        -0.765189         0.276779         0.897354
 C        -1.900698         0.819904         0.005696
 C        -2.466995         0.902465         1.459270
 C        -1.087707         1.601672         1.821611
 C        -3.929944         0.850146         1.814608
 O        -4.250617        -0.655782         1.850730
 C        -3.053958        -1.336375         1.319287
 C        -1.847892        -0.400573         1.738276
 H         1.090425         0.571270         0.298460
 H        -1.770850         1.744117        -0.632458
 H        -2.360178         0.036157        -0.534150
 H        -0.934106         2.647909         1.378370
 H        -0.905407         1.489728         2.854355
 H        -4.351351         1.355469         2.712093
 H        -4.440707         1.168627         0.910539
 H        -3.001957        -2.268685         1.851409
 H        -3.143574        -1.443077         0.215087
 H        -1.544146        -0.590976         2.765645
