19
Iteration:   769
 O         0.428884        -0.022735         0.510645
 C        -0.853781         0.241229         0.957619
 C        -1.888152         0.891417        -0.003085
 C        -2.435650         0.965722         1.495654
 C        -1.034968         1.486072         1.959996
 C        -3.844294         0.860407         1.915661
 O        -4.256715        -0.544876         1.613040
 C        -3.092823        -1.357680         1.247490
 C        -1.895932        -0.635461         1.695845
 H         0.822712        -1.007491         0.598683
 H        -1.350826         1.795886        -0.439293
 H        -2.486565         0.416919        -0.775797
 H        -0.573755         2.389613         1.679344
 H        -0.717722         1.488738         3.094331
 H        -3.944819         1.000693         3.074310
 H        -4.552969         1.494256         1.417963
 H        -3.148527        -2.359259         1.770976
 H        -3.198284        -1.464132         0.190159
 H        -1.727687        -0.801760         2.780231
