19
Iteration:  2532charge 0 multiplicity 1
 O         0.464412        -0.237491         0.370028
 C        -0.768246         0.352686         0.915055
 C        -1.927053         0.908655         0.014957
 C        -2.453196         0.982031         1.533886
 C        -1.129029         1.578167         2.023445
 C        -3.907074         0.793870         1.752482
 O        -4.229224        -0.630228         1.785309
 C        -3.037383        -1.317698         1.243327
 C        -1.874549        -0.472618         1.752750
 H         0.856132        -0.603346         1.169693
 H        -1.678290         1.850716        -0.597503
 H        -2.416719         0.200772        -0.629361
 H        -0.604884         2.587515         1.785654
 H        -1.036107         1.325342         3.129753
 H        -4.100903         1.096672         2.813104
 H        -4.625276         1.359749         1.140543
 H        -3.026256        -2.380435         1.538443
 H        -3.049287        -1.428075         0.127414
 H        -1.590308        -0.741021         2.807294
