19
Iteration:  4432
 O         0.408897        -0.089358         0.431022
 C        -0.851404         0.267319         0.864618
 C        -2.024136         0.654394        -0.023952
 C        -2.453763         0.858254         1.470287
 C        -1.140071         1.634512         1.729322
 C        -3.857951         0.853374         1.951321
 O        -4.134711        -0.505416         1.409388
 C        -2.984960        -1.356444         1.641509
 C        -1.806921        -0.480356         1.884534
 H         0.898751        -0.083515         1.264175
 H        -1.881021         1.634118        -0.571137
 H        -2.683705        -0.069392        -0.489469
 H        -1.253410         2.602790         1.289821
 H        -0.717487         1.770700         2.698577
 H        -3.828386         0.803962         3.085578
 H        -4.547729         1.536101         1.447336
 H        -3.324749        -1.938466         2.471592
 H        -2.929726        -2.041629         0.810645
 H        -1.353231        -0.583957         2.919659
