19
Iteration:  1517
 O         0.491941        -0.093754         0.480048
 C        -0.768470         0.288620         0.968143
 C        -1.856702         0.900848         0.056876
 C        -2.430143         0.894799         1.506059
 C        -1.048183         1.490559         1.886137
 C        -3.808316         0.774811         2.021379
 O        -4.290275        -0.521418         1.440264
 C        -3.181462        -1.391537         1.340332
 C        -1.957260        -0.503262         1.820551
 H         0.591998         0.303535        -0.346444
 H        -1.553433         1.886854        -0.295244
 H        -2.389096         0.400862        -0.771471
 H        -0.693020         2.529565         1.530387
 H        -0.624458         1.172725         2.836908
 H        -3.951351         0.767931         3.087222
 H        -4.539161         1.410331         1.556022
 H        -3.339266        -2.331844         1.917002
 H        -3.048416        -1.747035         0.323267
 H        -1.741644        -0.721850         2.845625
