19
Iteration:  1322
 O         0.390469        -0.188479         0.497854
 C        -0.809188         0.281385         0.916776
 C        -1.863506         1.104706         0.016373
 C        -2.397612         0.915539         1.450687
 C        -1.082150         1.429214         2.119541
 C        -3.884586         0.803047         1.741912
 O        -4.172316        -0.615446         1.862793
 C        -3.143716        -1.347851         1.163334
 C        -1.870747        -0.537804         1.570195
 H         0.959782         0.022710         1.198540
 H        -1.418703         2.022123        -0.294484
 H        -2.320666         0.491632        -0.799217
 H        -0.864558         2.379004         1.797975
 H        -0.869888         1.196795         3.131993
 H        -4.036698         1.244023         2.783612
 H        -4.591543         1.311693         0.997626
 H        -3.294674        -2.428904         1.490583
 H        -3.256983        -1.208542         0.112594
 H        -1.844029        -0.667840         2.670282
