19
Iteration:  2223
 O         0.430250        -0.217384         0.444844
 C        -0.811440         0.361938         0.871015
 C        -1.892509         0.951289         0.096036
 C        -2.471874         0.955404         1.557997
 C        -1.018990         1.457898         1.997342
 C        -3.979745         0.796754         1.762253
 O        -4.156518        -0.605067         1.775718
 C        -3.092369        -1.286871         1.208537
 C        -1.849363        -0.456670         1.658708
 H         0.678414        -0.936010         1.217310
 H        -1.704416         1.887583        -0.355877
 H        -2.438027         0.256292        -0.579922
 H        -0.755857         2.585588         1.845001
 H        -0.845299         1.266365         2.983918
 H        -4.261026         1.024857         2.777452
 H        -4.581759         1.338498         0.992038
 H        -3.014275        -2.335908         1.595504
 H        -3.263226        -1.259484         0.115248
 H        -1.462741        -0.738061         2.660136
