19
Iteration:    63
 O         0.514790        -0.079554         0.454479
 C        -0.728870         0.336508         0.909864
 C        -1.812581         0.769549        -0.065612
 C        -2.462159         0.956215         1.352794
 C        -1.102365         1.557879         1.789604
 C        -3.852726         0.836874         1.881247
 O        -4.297167        -0.598482         1.802028
 C        -3.191150        -1.456640         1.402575
 C        -1.973296        -0.442640         1.783111
 H         1.191631         0.019683         1.297307
 H        -1.514924         1.700339        -0.588488
 H        -2.075014         0.026990        -0.735085
 H        -0.759772         2.505739         1.450807
 H        -0.987099         1.591644         2.949755
 H        -3.756771         1.017015         3.028724
 H        -4.611597         1.400218         1.363757
 H        -3.239199        -2.389307         1.928555
 H        -3.265377        -1.740629         0.337124
 H        -1.657756        -0.688990         2.819184
