19
Iteration:  2459charge 0 multiplicity 1
 O         0.567168        -0.103260         0.572218
 C        -0.737606         0.353533         0.901288
 C        -1.950023         0.795234        -0.008247
 C        -2.482865         0.881192         1.488656
 C        -1.023497         1.569380         2.001260
 C        -3.938893         0.816188         1.945731
 O        -4.254086        -0.509789         1.668974
 C        -3.128220        -1.321530         1.247179
 C        -1.872234        -0.596631         1.657555
 H         0.471238        -0.484120        -0.374006
 H        -1.709568         1.828896        -0.364325
 H        -2.367851        -0.042870        -0.641310
 H        -0.940519         2.509223         1.600682
 H        -0.803011         1.534012         3.104120
 H        -4.223497         1.063464         2.984329
 H        -4.628206         1.404848         1.314347
 H        -3.181906        -2.336325         1.575683
 H        -3.250782        -1.449916         0.156998
 H        -1.435582        -0.896602         2.595244
