19
Iteration:  4138charge 0 multiplicity 1
 O         0.481840         0.002810         0.511652
 C        -0.795207         0.344606         0.915970
 C        -1.999019         0.719643        -0.051730
 C        -2.451133         0.915486         1.471844
 C        -1.143115         1.578811         1.677875
 C        -3.885293         0.836569         1.871832
 O        -4.160372        -0.547915         1.623783
 C        -3.022891        -1.482072         1.576664
 C        -1.857308        -0.467772         1.794298
 H         0.470082        -0.881847         0.407420
 H        -1.901478         1.585316        -0.747103
 H        -2.679376        -0.038533        -0.416949
 H        -0.810365         2.532549         1.166550
 H        -0.820530         1.693801         2.743488
 H        -3.999072         1.075994         3.023217
 H        -4.642639         1.446726         1.333303
 H        -3.163013        -2.108174         2.472149
 H        -2.989811        -2.137787         0.599929
 H        -1.420798        -0.495150         2.770450
