19
Iteration:  2692
 O         0.402630        -0.197763         0.519378
 C        -0.867192         0.272151         0.912563
 C        -1.957917         0.913441        -0.009709
 C        -2.495115         0.994649         1.526075
 C        -1.071082         1.539406         1.882273
 C        -3.921808         0.838175         1.940565
 O        -4.201633        -0.562370         1.421052
 C        -2.905152        -1.436477         1.448010
 C        -1.847733        -0.447869         1.876898
 H         0.543313        -0.118565        -0.559873
 H        -1.742063         1.848559        -0.659264
 H        -2.481858         0.146682        -0.552492
 H        -0.714905         2.500037         1.459297
 H        -0.721091         1.480906         2.851573
 H        -4.039959         0.853439         3.020076
 H        -4.668629         1.535348         1.514928
 H        -3.081258        -2.269644         2.167891
 H        -2.818342        -2.025478         0.556386
 H        -1.368146        -0.584467         2.837125
