19
Iteration:  2961
 O         0.403708        -0.248306         0.508768
 C        -0.874064         0.284228         0.933393
 C        -2.063754         0.767438         0.026062
 C        -2.495035         0.936204         1.487647
 C        -0.988876         1.611175         1.795417
 C        -3.939930         0.741745         1.854623
 O        -4.177626        -0.589066         1.433453
 C        -2.848600        -1.282687         1.549113
 C        -1.858125        -0.302983         1.918665
 H         0.220442        -0.135756        -0.559484
 H        -1.958121         1.747177        -0.528904
 H        -2.558438         0.047256        -0.553422
 H        -0.739023         2.675155         1.405530
 H        -0.680442         1.400224         2.830619
 H        -4.058079         0.910231         2.944136
 H        -4.702002         1.285071         1.319072
 H        -2.859412        -1.989612         2.373211
 H        -2.671224        -1.836146         0.573816
 H        -1.456404        -0.483620         2.942708
