19
Iteration:  1553
 O         0.472461        -0.191769         0.596200
 C        -0.795352         0.377372         0.843806
 C        -1.952395         0.857827        -0.029595
 C        -2.447580         0.848502         1.540770
 C        -1.131785         1.462544         1.922438
 C        -3.849361         0.881878         1.960605
 O        -4.242620        -0.550578         1.699651
 C        -3.076188        -1.300113         1.182594
 C        -1.846491        -0.567070         1.652865
 H         1.081943         0.478066         0.407654
 H        -1.799325         1.873793        -0.426080
 H        -2.389959         0.150765        -0.695082
 H        -0.826718         2.499188         1.909130
 H        -0.804825         1.025396         3.037313
 H        -4.020219         1.261292         2.932049
 H        -4.504906         1.422406         1.222499
 H        -3.116843        -2.282927         1.755249
 H        -3.158610        -1.353544         0.119216
 H        -1.616293        -0.648963         2.728041
