19
Iteration:  1528charge 0 multiplicity 1
 O         0.542854        -0.086463         0.513269
 C        -0.792251         0.241237         0.936709
 C        -1.893823         0.895194         0.012577
 C        -2.435753         0.947665         1.496653
 C        -0.945851         1.467813         1.965677
 C        -3.915248         0.786442         1.978240
 O        -4.297704        -0.541115         1.545045
 C        -3.157120        -1.358760         1.286228
 C        -1.956063        -0.566242         1.716105
 H         0.707311         0.525928        -0.130966
 H        -1.672815         1.851906        -0.466694
 H        -2.347198         0.112144        -0.607411
 H        -0.614137         2.416442         1.398179
 H        -0.789228         1.627941         3.041415
 H        -3.779263         0.826911         3.073985
 H        -4.720839         1.455115         1.713826
 H        -3.246498        -2.241294         1.947612
 H        -3.164726        -1.605820         0.223064
 H        -1.807609        -0.606866         2.769781
