19
Iteration:   423
 O         0.358080        -0.243405         0.503178
 C        -0.844813         0.276880         0.970887
 C        -1.875812         0.864158         0.014886
 C        -2.454405         0.964406         1.474280
 C        -1.035868         1.500220         1.919361
 C        -3.939110         0.826232         1.790517
 O        -4.124427        -0.648811         1.841313
 C        -3.009651        -1.278650         1.189467
 C        -1.972491        -0.393611         1.667526
 H         1.208122         0.098183         1.087486
 H        -1.632168         1.774627        -0.643387
 H        -2.447661         0.264201        -0.673527
 H        -0.669034         2.487006         1.511447
 H        -0.605127         1.413658         2.910544
 H        -4.265564         1.243105         2.842358
 H        -4.640168         1.342335         1.048655
 H        -2.929836        -2.156758         1.842868
 H        -3.074597        -1.461690         0.120096
 H        -1.767001        -0.567917         2.726192
