19
Iteration:  3362charge 0 multiplicity 1
 O         0.473793        -0.099157         0.597478
 C        -0.840800         0.251756         0.871230
 C        -2.016159         0.726122        -0.051629
 C        -2.483400         0.915215         1.424377
 C        -1.079023         1.541991         1.651343
 C        -3.831623         0.811004         1.977675
 O        -4.215284        -0.501806         1.697034
 C        -3.034499        -1.380462         1.434361
 C        -1.839813        -0.485256         1.761834
 H         0.861102         0.705552         0.683308
 H        -1.856489         1.650756        -0.634429
 H        -2.511071         0.034615        -0.607975
 H        -0.931715         2.387688         0.929362
 H        -0.772003         1.641049         2.679517
 H        -3.906065         0.916330         3.049701
 H        -4.559427         1.493381         1.498249
 H        -3.077013        -2.136602         2.226366
 H        -2.954422        -1.790765         0.443272
 H        -1.591902        -0.569078         2.795022
