19
Iteration:  1320charge 0 multiplicity 1
 O         0.394607        -0.190464         0.496818
 C        -0.785031         0.283051         0.921667
 C        -1.853670         1.117014        -0.000717
 C        -2.418170         0.918413         1.459984
 C        -1.071916         1.412826         2.106557
 C        -3.896682         0.794259         1.754002
 O        -4.176913        -0.629540         1.856408
 C        -3.139150        -1.330577         1.171358
 C        -1.885006        -0.527153         1.581918
 H         0.948981        -0.025057         1.188469
 H        -1.414936         2.032154        -0.317322
 H        -2.308374         0.479907        -0.778074
 H        -0.792115         2.496478         1.789807
 H        -0.845918         1.196392         3.117820
 H        -4.107389         1.273854         2.787790
 H        -4.595029         1.252626         1.003831
 H        -3.326044        -2.398116         1.484864
 H        -3.293601        -1.232540         0.088793
 H        -1.818699        -0.691288         2.651263
