19
Iteration:  1133
 O         0.425599        -0.140622         0.386396
 C        -0.828050         0.267679         0.949916
 C        -1.926002         1.015818         0.108249
 C        -2.429223         0.941253         1.551892
 C        -0.992769         1.424831         1.943710
 C        -3.840853         0.806273         1.976742
 O        -4.256487        -0.510719         1.383639
 C        -3.051155        -1.441490         1.292713
 C        -1.960245        -0.506779         1.844376
 H         0.943867        -0.161301         1.170039
 H        -1.601576         2.008273        -0.271178
 H        -2.514804         0.489423        -0.608341
 H        -0.536635         2.425597         1.564866
 H        -0.749439         1.257513         2.928188
 H        -4.127669         0.837680         3.027123
 H        -4.469645         1.557703         1.444047
 H        -3.364779        -2.405640         1.870636
 H        -2.924147        -1.736545         0.216032
 H        -1.691243        -0.656016         2.915526
