19
Iteration:  4209charge 0 multiplicity 1
 O         0.270660        -0.274145         0.452154
 C        -0.858909         0.332749         0.844034
 C        -2.068744         0.709707         0.042583
 C        -2.431422         0.962081         1.589583
 C        -1.143069         1.662201         1.727556
 C        -3.898767         0.748741         1.886552
 O        -4.126955        -0.542781         1.354809
 C        -2.883963        -1.355727         1.572127
 C        -1.694604        -0.374941         1.953256
 H         0.966804         0.182665         0.720551
 H        -1.993969         1.667492        -0.419557
 H        -2.637645        -0.120245        -0.535745
 H        -0.975947         2.615899         1.228716
 H        -0.836650         1.804075         2.776861
 H        -4.085959         0.908701         3.029841
 H        -4.525981         1.533203         1.410922
 H        -2.956008        -2.149709         2.377115
 H        -2.788244        -1.832153         0.635599
 H        -1.380890        -0.476695         3.065015
