19
Iteration:   548
 O         0.346668        -0.254516         0.373564
 C        -0.817470         0.313734         0.910607
 C        -2.007825         0.925532         0.116019
 C        -2.408043         0.929089         1.610328
 C        -1.044860         1.550370         1.949171
 C        -3.914282         0.727676         1.922839
 O        -4.200988        -0.498016         1.321941
 C        -2.935435        -1.329752         1.407525
 C        -1.855205        -0.434882         1.828933
 H         0.730593        -0.562369         1.179963
 H        -1.824345         1.909513        -0.312691
 H        -2.540638         0.220886        -0.570787
 H        -0.707856         2.427694         1.525077
 H        -0.776126         1.228882         2.953558
 H        -4.114409         0.786538         3.039927
 H        -4.405787         1.530263         1.372602
 H        -3.128910        -2.139979         2.112417
 H        -2.976337        -1.746605         0.378363
 H        -1.458676        -0.507474         2.834183
