19
Iteration:  2681charge 0 multiplicity 1
 O         0.363603        -0.196718         0.501903
 C        -0.851666         0.313700         0.929085
 C        -1.991411         0.873002         0.116376
 C        -2.474229         0.938099         1.538361
 C        -1.072616         1.551325         1.849468
 C        -3.911850         0.824254         1.906494
 O        -4.099568        -0.559924         1.407276
 C        -2.920128        -1.420210         1.465508
 C        -1.867633        -0.422446         1.802173
 H         0.164198        -0.581337        -0.459444
 H        -1.534295         1.810997        -0.363935
 H        -2.614651         0.353656        -0.598882
 H        -0.893344         2.561914         1.447528
 H        -0.764034         1.365147         2.806660
 H        -4.059246         0.893457         2.980814
 H        -4.592535         1.476092         1.324850
 H        -3.019046        -2.141811         2.299490
 H        -2.820357        -1.759939         0.456341
 H        -1.679831        -0.479088         2.871398
