19
Iteration:  4660charge 0 multiplicity 1
 O         0.413659        -0.415442         0.429560
 C        -0.772652         0.349027         0.875652
 C        -2.014583         0.889262         0.005029
 C        -2.474934         1.006709         1.479107
 C        -1.234686         1.721442         1.883865
 C        -3.878710         0.808648         1.796660
 O        -4.169132        -0.623853         1.700338
 C        -2.870382        -1.339814         1.471835
 C        -1.800500        -0.370935         1.689555
 H         0.638577        -0.938791         1.211049
 H        -1.961376         1.813695        -0.500060
 H        -2.565648         0.117149        -0.591708
 H        -1.020340         2.726358         1.524721
 H        -1.074459         1.582357         2.972608
 H        -4.227093         1.016626         2.812005
 H        -4.521094         1.329730         1.101554
 H        -2.766374        -2.075085         2.317295
 H        -2.897141        -1.875191         0.507560
 H        -1.621946        -0.556355         2.741321
