19
Iteration:  3044
 O         0.472098        -0.087821         0.502652
 C        -0.785717         0.274838         0.933209
 C        -1.949917         0.718151        -0.015316
 C        -2.452820         0.950156         1.468529
 C        -1.055311         1.537343         1.676432
 C        -3.899527         0.780211         1.891950
 O        -4.289654        -0.570435         1.653560
 C        -3.042243        -1.395011         1.488052
 C        -1.879209        -0.408840         1.815989
 H         0.997782         0.818841         0.452350
 H        -1.686266         1.553193        -0.644315
 H        -2.641301        -0.138985        -0.430049
 H        -0.732422         2.353092         1.016859
 H        -0.493695         1.683610         2.664289
 H        -3.929790         0.881884         2.981018
 H        -4.647660         1.458677         1.353205
 H        -3.090490        -2.231628         2.239921
 H        -2.954954        -1.686337         0.478053
 H        -1.634604        -0.361336         2.886418
