19
Iteration:   570charge 0 multiplicity 1
 O         0.313840        -0.291497         0.332119
 C        -0.759863         0.263386         0.990781
 C        -1.931856         0.895154         0.048238
 C        -2.485003         1.086249         1.544399
 C        -1.053860         1.537105         2.001058
 C        -3.967901         0.798766         2.037516
 O        -4.139981        -0.518184         1.265624
 C        -2.979982        -1.401803         1.392650
 C        -1.906169        -0.428427         1.863971
 H         1.255224         0.038877         0.818677
 H        -1.647135         1.829605        -0.459909
 H        -2.463795         0.191862        -0.630067
 H        -0.852313         2.468524         1.497330
 H        -0.574982         1.345796         2.967856
 H        -3.825414         0.596383         3.167522
 H        -4.849207         1.384101         1.783733
 H        -3.268841        -2.158069         2.115008
 H        -2.757746        -1.871101         0.385140
 H        -1.455906        -0.589686         2.832054
