19
Iteration:  3336
 O         0.525338        -0.059044         0.374799
 C        -0.759614         0.334447         0.872426
 C        -1.910947         0.621954        -0.041693
 C        -2.472028         0.965855         1.473673
 C        -1.079081         1.608407         1.711773
 C        -3.867420         0.785527         1.994279
 O        -4.314621        -0.534142         1.577141
 C        -3.089904        -1.423708         1.510165
 C        -1.864558        -0.377297         1.878531
 H         0.964352        -0.413693         1.113493
 H        -1.858218         1.522896        -0.696985
 H        -2.401706        -0.294570        -0.640964
 H        -0.994797         2.576443         1.250583
 H        -0.892488         1.538096         2.819281
 H        -3.913570         0.710772         3.139660
 H        -4.645081         1.516641         1.687950
 H        -3.143030        -2.081868         2.376199
 H        -2.986895        -2.018640         0.537438
 H        -1.643283        -0.453093         2.981637
