19
Iteration:  1893charge 0 multiplicity 1
 O         0.428502        -0.248669         0.517759
 C        -0.810485         0.299675         0.933090
 C        -1.910720         1.043259         0.081110
 C        -2.450440         1.036988         1.471400
 C        -1.032686         1.446390         1.960293
 C        -3.961620         0.817049         1.732752
 O        -4.137248        -0.634703         1.805726
 C        -3.110898        -1.377310         1.246571
 C        -1.913958        -0.489961         1.682333
 H         1.032166         0.488682         0.099108
 H        -1.582416         2.081758        -0.324426
 H        -2.417408         0.414232        -0.718351
 H        -0.537494         2.357814         1.683664
 H        -0.655680         0.928157         2.956371
 H        -4.302104         1.062550         2.761741
 H        -4.670528         1.303487         0.959566
 H        -3.219419        -2.407523         1.749544
 H        -3.018642        -1.542664         0.186140
 H        -1.666869        -0.586221         2.792065
