19
Iteration:  2284
 O         0.525213        -0.065757         0.441849
 C        -0.789722         0.381857         0.869621
 C        -1.887602         0.814907        -0.036049
 C        -2.451987         0.889650         1.541384
 C        -0.965536         1.409318         1.968794
 C        -3.931512         0.860650         2.008578
 O        -4.353746        -0.528282         1.514499
 C        -3.102325        -1.368046         1.321082
 C        -1.901206        -0.528116         1.704026
 H         1.006338         0.213964         1.255977
 H        -1.709927         1.677968        -0.819024
 H        -2.412325         0.035231        -0.570756
 H        -0.881810         2.488418         1.817081
 H        -0.553457         1.142653         3.134736
 H        -3.814495         0.690741         3.123085
 H        -4.595481         1.714931         1.816243
 H        -3.278018        -2.194318         2.049937
 H        -3.291159        -1.645136         0.256396
 H        -1.524167        -0.852932         2.693447
