19
Iteration:   205
 O         0.529417        -0.065693         0.447084
 C        -0.776545         0.242921         0.897263
 C        -1.929745         0.668664        -0.047647
 C        -2.428396         0.946318         1.502120
 C        -1.033723         1.597500         1.751763
 C        -3.936249         0.782716         1.996702
 O        -4.377955        -0.526873         1.566797
 C        -3.048353        -1.347329         1.412729
 C        -1.905157        -0.447618         1.839953
 H         1.182119        -0.052855         1.317654
 H        -1.750479         1.705966        -0.611539
 H        -2.360636        -0.102978        -0.633009
 H        -0.624521         2.521515         1.362001
 H        -0.621594         1.481168         2.809492
 H        -3.921524         0.816327         3.124958
 H        -4.622794         1.529441         1.575382
 H        -3.112718        -2.258914         1.977146
 H        -3.057855        -1.770997         0.356571
 H        -1.509979        -0.417404         2.857774
