19
Iteration:  2932
 O         0.467256        -0.123377         0.491188
 C        -0.870326         0.263872         0.932149
 C        -1.972448         0.778913         0.014031
 C        -2.450481         0.918435         1.533863
 C        -1.126124         1.694692         1.792238
 C        -3.894128         0.826742         1.860297
 O        -4.228309        -0.522832         1.541316
 C        -2.891260        -1.456658         1.478694
 C        -1.869561        -0.464749         1.844568
 H         0.294842        -1.002334         0.031055
 H        -1.823795         1.677288        -0.580188
 H        -2.575814        -0.053122        -0.436106
 H        -1.068772         2.696710         1.245149
 H        -0.685522         1.715073         2.752369
 H        -3.932919         1.142475         2.928859
 H        -4.536224         1.410538         1.178249
 H        -3.007405        -2.183731         2.279033
 H        -2.873928        -1.750121         0.458522
 H        -1.386571        -0.756980         2.757073
