19
Iteration:  1707charge 0 multiplicity 1
 O         0.373097        -0.249000         0.527092
 C        -0.809608         0.379705         0.902195
 C        -1.961213         0.934980         0.076685
 C        -2.422316         0.845885         1.579367
 C        -1.135515         1.600049         1.914105
 C        -3.795502         0.858811         1.998286
 O        -4.241469        -0.523406         1.372612
 C        -3.040032        -1.361077         1.341200
 C        -1.820619        -0.582158         1.748000
 H         0.751113         0.168200        -0.154570
 H        -1.787914         1.915014        -0.377270
 H        -2.429814         0.105446        -0.554290
 H        -0.784326         2.471076         1.430216
 H        -0.815468         1.290818         3.000907
 H        -3.882351         0.727921         3.072881
 H        -4.484849         1.676266         1.634486
 H        -3.097094        -2.114065         2.266088
 H        -3.068381        -1.989840         0.440018
 H        -1.360249        -0.721614         2.724286
