19
Iteration:  2436charge 0 multiplicity 1
 O         0.496917         0.026791         0.517061
 C        -0.786971         0.312546         0.922269
 C        -1.874016         0.839261         0.065452
 C        -2.460278         0.864921         1.507211
 C        -1.093299         1.456360         1.848791
 C        -3.784725         0.831130         1.943972
 O        -4.298351        -0.518973         1.603966
 C        -3.109962        -1.365527         1.237952
 C        -1.959411        -0.554502         1.776601
 H         0.678801        -0.853962         0.237473
 H        -1.494557         1.871099        -0.267602
 H        -2.320656         0.084452        -0.587384
 H        -0.842520         2.350280         1.434802
 H        -0.800303         1.305100         2.913459
 H        -3.815279         0.788823         3.050205
 H        -4.421513         1.660180         1.647516
 H        -3.144548        -2.351457         1.662041
 H        -3.243097        -1.578439         0.165473
 H        -1.618946        -0.715375         2.783090
