19
Iteration:  4827charge 0 multiplicity 1
 O         0.423892        -0.165482         0.493052
 C        -0.879654         0.300509         0.915665
 C        -2.014836         0.661239         0.015504
 C        -2.457831         0.960358         1.518612
 C        -1.143733         1.652875         1.744185
 C        -3.885232         0.824616         1.965274
 O        -4.228222        -0.545536         1.558870
 C        -2.899616        -1.308695         1.318765
 C        -1.771820        -0.452176         1.926569
 H         0.563505        -1.005915         0.967125
 H        -1.865051         1.658704        -0.547686
 H        -2.427724        -0.066524        -0.674719
 H        -0.955262         2.549975         1.136245
 H        -0.722406         1.651314         2.746426
 H        -3.837824         1.042749         3.061135
 H        -4.548615         1.459799         1.373403
 H        -3.028126        -2.338917         1.649899
 H        -2.796198        -1.422366         0.200972
 H        -1.548903        -0.527567         3.003844
