19
Iteration:  2682
 O         0.367238        -0.195825         0.506717
 C        -0.852138         0.308420         0.923761
 C        -1.985641         0.883872         0.107206
 C        -2.490409         0.936057         1.539312
 C        -1.070864         1.554059         1.850253
 C        -3.911250         0.832621         1.909474
 O        -4.104863        -0.559486         1.408490
 C        -2.912660        -1.427054         1.462179
 C        -1.869872        -0.427197         1.807628
 H         0.185820        -0.550414        -0.505550
 H        -1.520478         1.768620        -0.392126
 H        -2.610815         0.347988        -0.557457
 H        -0.877002         2.549183         1.440386
 H        -0.782537         1.345994         2.788035
 H        -4.051208         0.884159         2.977675
 H        -4.595594         1.499961         1.352261
 H        -3.019671        -2.149573         2.296651
 H        -2.824474        -1.781617         0.476037
 H        -1.651486        -0.472737         2.884372
