19
Iteration:  2742
 O         0.473173        -0.049719         0.505322
 C        -0.854364         0.250512         0.871706
 C        -1.995278         0.727687        -0.038052
 C        -2.443874         0.878400         1.482656
 C        -1.101327         1.586350         1.810695
 C        -3.858846         0.827019         1.937384
 O        -4.222334        -0.500175         1.593736
 C        -3.041546        -1.363555         1.438657
 C        -1.832181        -0.567583         1.759805
 H         0.961549         0.001199         1.273466
 H        -1.667304         1.662002        -0.438359
 H        -2.589639         0.185862        -0.824223
 H        -0.733965         2.569743         1.570635
 H        -0.906325         1.569593         2.992407
 H        -3.995575         1.014165         3.031409
 H        -4.510057         1.503965         1.369264
 H        -3.177376        -2.376164         1.752550
 H        -3.005216        -1.462995         0.295067
 H        -1.528348        -0.650100         2.835020
