19
Iteration:  4441charge 0 multiplicity 1
 O         0.393948        -0.108583         0.384420
 C        -0.855539         0.282895         0.859451
 C        -1.995332         0.751223         0.014757
 C        -2.430004         0.914160         1.484176
 C        -1.135053         1.630102         1.745715
 C        -3.871646         0.792293         1.902501
 O        -4.137666        -0.541684         1.395209
 C        -3.040755        -1.387122         1.714065
 C        -1.810166        -0.457213         1.905006
 H         0.849962        -0.352631         1.200113
 H        -1.734427         1.569044        -0.701784
 H        -2.526462         0.001468        -0.514912
 H        -0.969039         2.489477         1.089003
 H        -0.784716         1.646220         2.746149
 H        -3.968263         0.962742         3.023576
 H        -4.613036         1.414228         1.494679
 H        -3.134708        -2.128307         2.527127
 H        -2.834217        -1.919978         0.793416
 H        -1.391715        -0.306090         2.946865
