19
Iteration:  2997charge 0 multiplicity 1
 O         0.317265        -0.255513         0.467403
 C        -0.856590         0.317842         0.913174
 C        -1.990627         0.774103         0.037698
 C        -2.453786         0.886605         1.479970
 C        -1.076451         1.705628         1.787337
 C        -3.868120         0.741578         1.881938
 O        -4.143787        -0.549487         1.444810
 C        -2.963696        -1.361023         1.581659
 C        -1.823943        -0.430863         1.829518
 H         1.155914         0.422911         0.305219
 H        -2.019700         1.724101        -0.431034
 H        -2.344596        -0.079134        -0.497702
 H        -1.138661         2.735807         1.228258
 H        -0.826735         1.918046         2.838089
 H        -3.913171         0.931262         2.965541
 H        -4.568390         1.364079         1.317533
 H        -2.951087        -1.836875         2.551143
 H        -3.043671        -2.092782         0.763625
 H        -1.396708        -0.536467         2.821970
