19
Iteration:  4653charge 0 multiplicity 1
 O         0.353125        -0.389616         0.411771
 C        -0.772787         0.361054         0.810323
 C        -1.999713         0.864999         0.046859
 C        -2.447636         0.998498         1.464926
 C        -1.224280         1.687513         1.944343
 C        -3.888214         0.810944         1.718694
 O        -4.114086        -0.612813         1.729442
 C        -2.899953        -1.367185         1.459078
 C        -1.845148        -0.346862         1.775992
 H         0.669806        -0.896311         1.317586
 H        -1.933583         1.813218        -0.581285
 H        -2.384576        -0.021260        -0.560430
 H        -1.009030         2.624291         1.441690
 H        -1.100027         1.708847         3.022648
 H        -4.243683         1.140034         2.700996
 H        -4.631645         1.271010         1.063621
 H        -2.728312        -2.154717         2.172921
 H        -2.885719        -1.652606         0.360851
 H        -1.310228        -0.617297         2.757559
