19
Iteration:  3043charge 0 multiplicity 1
 O         0.476569        -0.091317         0.501994
 C        -0.778407         0.273584         0.924817
 C        -1.959702         0.716112        -0.012981
 C        -2.457193         0.954502         1.469260
 C        -1.046684         1.532234         1.684750
 C        -3.911369         0.777020         1.891481
 O        -4.273999        -0.561767         1.650041
 C        -3.039383        -1.393380         1.493015
 C        -1.887963        -0.407733         1.810936
 H         0.997980         0.865730         0.467901
 H        -1.717029         1.530824        -0.612417
 H        -2.632593        -0.143408        -0.449842
 H        -0.730524         2.342590         0.972146
 H        -0.498580         1.692500         2.683406
 H        -3.948377         0.862088         2.979191
 H        -4.680063         1.446225         1.379690
 H        -3.107212        -2.215295         2.244196
 H        -2.951636        -1.713724         0.487107
 H        -1.674700        -0.364879         2.883681
