19
Iteration:   876
 O         0.391470        -0.116460         0.410790
 C        -0.811164         0.375157         0.909165
 C        -2.054432         0.921623         0.123286
 C        -2.421362         0.883855         1.623626
 C        -0.940736         1.518380         1.982044
 C        -3.871860         0.830082         1.854159
 O        -4.155579        -0.483266         1.374713
 C        -3.097985        -1.378859         1.366905
 C        -1.843940        -0.615555         1.804768
 H         0.693936        -1.057142         0.837279
 H        -2.148272         1.933445        -0.366860
 H        -2.518721         0.314649        -0.614351
 H        -0.835445         2.517260         1.672286
 H        -0.650209         1.352476         3.074535
 H        -4.244311         0.961595         2.856839
 H        -4.442893         1.452976         1.214066
 H        -3.337829        -2.106356         2.113633
 H        -3.008324        -2.028542         0.482498
 H        -1.446945        -0.865868         2.784916
