19
Iteration:  2856charge 0 multiplicity 1
 O         0.487723        -0.201808         0.509443
 C        -0.751780         0.417685         0.896992
 C        -1.921171         0.781721        -0.100674
 C        -2.455963         0.866496         1.433744
 C        -1.115810         1.582061         1.814630
 C        -3.979120         0.841446         1.795953
 O        -4.247447        -0.561170         1.860387
 C        -3.026681        -1.378757         1.325910
 C        -1.855740        -0.553385         1.840656
 H         1.218958         0.448686         0.697999
 H        -1.802599         1.892600        -0.316358
 H        -2.256686         0.169996        -0.966462
 H        -0.973756         2.614651         1.382955
 H        -0.705836         1.572612         2.769305
 H        -4.016974         1.202016         2.860643
 H        -4.681075         1.452052         1.181245
 H        -3.169709        -2.381200         1.847759
 H        -3.108193        -1.566628         0.239046
 H        -1.740782        -0.608067         2.909250
