19
Iteration:  1606
 O         0.417850        -0.302989         0.511648
 C        -0.768890         0.354842         0.939091
 C        -1.782033         1.010035        -0.057620
 C        -2.499011         0.995010         1.468696
 C        -0.998167         1.436260         2.016348
 C        -4.027798         0.703323         1.778598
 O        -4.216063        -0.647881         1.875285
 C        -3.074923        -1.296681         1.214401
 C        -1.927834        -0.363915         1.692707
 H         1.010443         0.462402         0.190266
 H        -1.695925         1.953967        -0.638053
 H        -2.321310         0.393837        -0.720639
 H        -0.647237         2.433506         1.943466
 H        -0.665946         1.054191         3.061455
 H        -4.196422         1.251280         2.728153
 H        -4.731654         1.068631         1.007795
 H        -3.080447        -2.452750         1.457377
 H        -3.233708        -1.193404         0.167763
 H        -1.392486        -0.548120         2.599987
