19
Iteration:   188charge 0 multiplicity 1
 O         0.511375        -0.022778         0.560807
 C        -0.791148         0.384272         0.879534
 C        -1.904009         0.723355        -0.073061
 C        -2.476911         0.895403         1.484586
 C        -0.981503         1.542665         1.711001
 C        -3.901730         0.824076         2.018489
 O        -4.253421        -0.549945         1.608540
 C        -3.191612        -1.366140         1.410497
 C        -1.857495        -0.517484         1.718311
 H         0.832543        -0.519251         1.536838
 H        -1.751834         1.507615        -0.714927
 H        -2.406450        -0.169168        -0.551970
 H        -1.045553         2.501445         1.077795
 H        -0.570096         1.603263         2.671281
 H        -3.881106         0.989416         3.128995
 H        -4.664692         1.480537         1.599702
 H        -3.273215        -2.181937         2.191710
 H        -3.216121        -1.745994         0.411143
 H        -1.562856        -0.841734         2.743358
