19
Iteration:   963
 O         0.420176        -0.243873         0.572673
 C        -0.796584         0.326844         0.805120
 C        -1.954462         0.958422         0.100790
 C        -2.431571         0.928572         1.541397
 C        -1.105190         1.436835         1.902585
 C        -3.919297         0.841533         1.918108
 O        -4.191123        -0.502555         1.632507
 C        -3.048287        -1.355309         1.252102
 C        -1.839980        -0.582736         1.657830
 H         1.117641         0.325796         1.068954
 H        -1.808658         2.025881        -0.305324
 H        -2.464426         0.301131        -0.612287
 H        -0.966727         2.425620         1.603293
 H        -0.709564         1.356249         2.968020
 H        -4.120499         1.240744         3.007285
 H        -4.393778         1.497848         1.189256
 H        -3.392227        -2.332593         1.558758
 H        -3.024156        -1.451036         0.065354
 H        -1.425879        -0.818614         2.641313
