19
Iteration:  2463
 O         0.563127        -0.138186         0.570136
 C        -0.742209         0.396896         0.895350
 C        -1.948818         0.817062         0.035332
 C        -2.486524         0.886234         1.510430
 C        -1.040531         1.514665         1.975047
 C        -3.957565         0.819503         1.902388
 O        -4.229483        -0.526551         1.687159
 C        -3.097699        -1.318576         1.243162
 C        -1.907322        -0.568097         1.660201
 H         0.639630        -0.344754        -0.350405
 H        -1.799669         1.761703        -0.456392
 H        -2.315275         0.027591        -0.653060
 H        -0.834501         2.634201         1.552500
 H        -0.810373         1.404245         3.036946
 H        -4.182379         1.047291         2.960072
 H        -4.613572         1.523820         1.317327
 H        -3.157749        -2.373814         1.623126
 H        -3.330741        -1.456112         0.184079
 H        -1.427458        -0.872704         2.619157
