19
Iteration:  1624charge 0 multiplicity 1
 O         0.399046        -0.236666         0.543339
 C        -0.799712         0.307926         0.913624
 C        -1.897131         0.994014         0.043730
 C        -2.432986         0.957171         1.435672
 C        -1.097360         1.457645         2.016743
 C        -3.920207         0.892801         1.747782
 O        -4.183261        -0.650666         1.870550
 C        -3.051842        -1.313966         1.214736
 C        -1.853950        -0.557550         1.650621
 H         0.854941         0.316957        -0.145618
 H        -1.565443         2.011167        -0.245052
 H        -2.270055         0.375819        -0.811562
 H        -0.766470         2.518085         1.752487
 H        -0.902182         1.288932         3.021900
 H        -4.402071         1.149262         2.725184
 H        -4.507498         1.313679         0.933643
 H        -3.050742        -2.273372         1.667327
 H        -3.193116        -1.334683         0.080201
 H        -1.677712        -0.749323         2.740482
