19
Iteration:  2590charge 0 multiplicity 1
 O         0.574481        -0.140765         0.599220
 C        -0.735901         0.366701         0.897822
 C        -1.982381         0.817916        -0.016246
 C        -2.478597         0.863746         1.504906
 C        -1.079586         1.490431         1.864661
 C        -3.912332         0.818787         1.981913
 O        -4.256134        -0.521249         1.598724
 C        -3.122356        -1.332852         1.372082
 C        -1.878296        -0.521354         1.630983
 H         0.783108         0.432615        -0.208793
 H        -1.605682         1.726642        -0.653507
 H        -2.449445        -0.042116        -0.693426
 H        -0.857064         2.467957         1.484720
 H        -0.848308         1.305774         2.994598
 H        -3.943673         0.830415         3.097661
 H        -4.694394         1.447024         1.545275
 H        -3.130967        -2.121533         2.112531
 H        -3.184831        -1.599424         0.250659
 H        -1.553381        -0.611109         2.676382
