19
Iteration:  1732
 O         0.368609        -0.332439         0.419146
 C        -0.830761         0.300508         0.912432
 C        -2.074673         0.897162         0.111432
 C        -2.459069         0.947570         1.660610
 C        -1.005227         1.566419         1.979466
 C        -3.943283         0.749465         1.935524
 O        -4.137925        -0.467775         1.292560
 C        -2.979980        -1.339623         1.405264
 C        -1.790055        -0.459069         1.816327
 H         0.811708         0.492859         0.073234
 H        -1.883275         1.841814        -0.428291
 H        -2.653445         0.129147        -0.396667
 H        -0.688693         2.628128         1.460178
 H        -0.653756         1.307725         3.011883
 H        -4.177124         0.732351         3.009272
 H        -4.638143         1.412866         1.424323
 H        -3.173608        -2.151025         2.080059
 H        -3.029349        -1.725709         0.338335
 H        -1.275346        -0.533523         2.781886
