19
Iteration:  3869
 O         0.396086        -0.216303         0.293589
 C        -0.815864         0.358435         0.941440
 C        -2.042021         0.760024         0.072838
 C        -2.473402         1.016359         1.525688
 C        -0.977743         1.663571         1.761050
 C        -3.893448         0.739272         1.820574
 O        -4.245287        -0.651770         1.451036
 C        -2.958512        -1.408976         1.608754
 C        -1.846513        -0.322168         1.925123
 H         1.155260        -0.256310         0.958244
 H        -2.109300         1.757183        -0.469980
 H        -2.567973        -0.002726        -0.512152
 H        -0.727979         2.579843         1.197765
 H        -0.514378         1.607254         2.734655
 H        -4.093922         0.953315         2.895132
 H        -4.687129         1.369608         1.374880
 H        -2.992635        -1.984166         2.631303
 H        -2.889058        -2.281991         0.956671
 H        -1.566059        -0.247158         3.038308
