19
Iteration:  3255
 O         0.387669        -0.339930         0.424259
 C        -0.798734         0.331655         0.966217
 C        -1.965099         0.739474         0.021197
 C        -2.482945         1.015461         1.463839
 C        -1.074855         1.723907         1.763283
 C        -3.955329         0.754716         1.920361
 O        -4.205103        -0.584432         1.485012
 C        -2.910524        -1.394208         1.579785
 C        -1.833911        -0.342182         1.872730
 H         0.662521         0.108729        -0.345726
 H        -1.896880         1.623307        -0.654415
 H        -2.448781        -0.084965        -0.385168
 H        -0.907352         2.700060         1.229668
 H        -0.783981         1.849051         2.781320
 H        -4.008707         0.795397         3.034657
 H        -4.762801         1.352892         1.479716
 H        -2.812125        -2.221533         2.303770
 H        -2.730388        -1.793639         0.601692
 H        -1.643373        -0.206754         2.956794
