19
Iteration:   710charge 0 multiplicity 1
 O         0.405096        -0.101392         0.647673
 C        -0.846048         0.289306         0.860389
 C        -1.873894         0.996025         0.062211
 C        -2.456789         0.921540         1.558315
 C        -0.948176         1.410066         1.907063
 C        -3.951732         0.837441         1.803280
 O        -4.195368        -0.606872         1.778288
 C        -3.087434        -1.287785         1.224017
 C        -1.877657        -0.514349         1.608444
 H         0.477779        -0.932238         0.323271
 H        -1.613637         2.065756        -0.275630
 H        -2.331698         0.321585        -0.720197
 H        -0.663271         2.339509         1.296328
 H        -0.659639         1.088380         2.883723
 H        -4.315384         1.124126         2.744548
 H        -4.528757         1.310978         0.982924
 H        -3.172814        -2.270805         1.621338
 H        -3.189045        -1.342739         0.113901
 H        -1.524271        -0.908076         2.547483
