19
Iteration:  4774
 O         0.387368        -0.170020         0.360973
 C        -0.824841         0.297218         0.905889
 C        -1.949000         0.838919        -0.041005
 C        -2.494440         0.989953         1.446884
 C        -0.976879         1.417215         1.870330
 C        -3.992712         0.790643         1.864981
 O        -4.150793        -0.609593         1.495471
 C        -2.953216        -1.357518         1.601100
 C        -1.922335        -0.321188         1.887888
 H         1.074241         0.014709         0.931933
 H        -1.586731         1.859048        -0.562350
 H        -2.550696         0.275001        -0.768804
 H        -0.867230         2.475823         1.594834
 H        -0.839746         1.246338         2.928526
 H        -4.046489         0.939111         2.956786
 H        -4.737193         1.367724         1.253836
 H        -3.017530        -2.044718         2.477987
 H        -2.838370        -2.003724         0.640183
 H        -1.682837        -0.236007         2.999736
