19
Iteration:  4187charge 0 multiplicity 1
 O         0.254619        -0.277046         0.309194
 C        -0.850770         0.331042         0.954163
 C        -2.008911         0.763595         0.078425
 C        -2.472771         1.012642         1.572899
 C        -1.106162         1.759487         1.779428
 C        -3.906013         0.813342         1.860964
 O        -4.060456        -0.631198         1.402051
 C        -2.910036        -1.443086         1.612080
 C        -1.844006        -0.402300         1.887189
 H         1.073254        -0.196149         1.026036
 H        -1.810810         1.669408        -0.470073
 H        -2.306557        -0.098838        -0.590257
 H        -1.050429         2.735193         1.326042
 H        -0.589707         1.829636         2.745747
 H        -4.195081         1.198176         2.858234
 H        -4.587475         1.283693         1.133780
 H        -3.012959        -2.118317         2.507443
 H        -2.691941        -2.051166         0.765625
 H        -1.423460        -0.455265         2.963473
