19
Iteration:  2730
 O         0.488425        -0.129146         0.478644
 C        -0.784027         0.316295         0.921256
 C        -1.966604         0.779144        -0.018075
 C        -2.466653         0.961051         1.507671
 C        -1.126757         1.540828         1.831582
 C        -3.866549         0.891882         1.986558
 O        -4.256600        -0.514888         1.547006
 C        -3.014821        -1.472464         1.361249
 C        -1.864790        -0.529447         1.772302
 H         1.106182         0.448056         0.985978
 H        -1.977711         1.714239        -0.515103
 H        -2.380251        -0.066709        -0.635188
 H        -1.026425         2.382644         1.188123
 H        -0.772309         1.513978         2.952112
 H        -3.925312         1.053461         3.084612
 H        -4.599960         1.526226         1.483778
 H        -3.142607        -2.221087         2.142485
 H        -3.052568        -1.879496         0.314524
 H        -1.522924        -0.728774         2.833215
