19
Iteration:  1646
 O         0.484378        -0.166941         0.539462
 C        -0.814619         0.336267         0.901726
 C        -1.888857         0.906849         0.070841
 C        -2.422924         0.869270         1.572665
 C        -1.124283         1.531989         1.948960
 C        -3.894979         0.814967         1.816511
 O        -4.202684        -0.495007         1.743067
 C        -3.083974        -1.402995         1.191863
 C        -1.883052        -0.593696         1.687871
 H         0.743084         0.292143        -0.267128
 H        -1.641723         1.894486        -0.365501
 H        -2.482788         0.173451        -0.496683
 H        -0.836403         2.585423         1.561896
 H        -0.790733         1.407621         2.933250
 H        -4.060360         1.273703         2.844431
 H        -4.440093         1.428510         1.095850
 H        -3.290333        -2.288444         1.709723
 H        -3.241907        -1.460414         0.070776
 H        -1.776257        -0.985996         2.721234
