19
Iteration:  4571
 O         0.515463         0.056615         0.567723
 C        -0.812424         0.255532         0.869739
 C        -1.932423         0.752168        -0.154233
 C        -2.436430         0.800847         1.286822
 C        -1.207081         1.485470         1.783098
 C        -3.849235         0.923898         1.858073
 O        -4.210926        -0.493655         1.858278
 C        -3.149813        -1.416804         1.530565
 C        -1.825702        -0.624124         1.646650
 H         1.087758         0.314723         1.383175
 H        -1.676206         1.748857        -0.565293
 H        -2.347585         0.068122        -0.831066
 H        -1.077267         2.540178         1.426953
 H        -0.734897         1.335836         2.766869
 H        -3.719562         1.125472         2.921556
 H        -4.477802         1.619869         1.369126
 H        -3.123010        -2.307209         2.253514
 H        -3.239617        -1.811815         0.513827
 H        -1.675302        -0.479612         2.697440
