19
Iteration:  3876charge 0 multiplicity 1
 O         0.419800        -0.190743         0.284754
 C        -0.801402         0.335165         0.923712
 C        -2.099321         0.763747         0.074329
 C        -2.473688         0.990278         1.562861
 C        -1.000412         1.627833         1.748197
 C        -3.930233         0.778552         1.794392
 O        -4.212265        -0.631173         1.449360
 C        -2.937378        -1.376988         1.677827
 C        -1.823756        -0.388956         1.938953
 H         0.967370        -0.477256         0.927315
 H        -2.013994         1.702144        -0.439337
 H        -2.732269         0.062971        -0.588073
 H        -0.781032         2.600999         1.270843
 H        -0.766497         1.718005         2.842642
 H        -4.164288         0.995892         2.833750
 H        -4.549591         1.382577         1.095756
 H        -3.057912        -2.002278         2.534823
 H        -2.699980        -2.032617         0.754112
 H        -1.396252        -0.272086         2.967650
