19
Iteration:   780charge 0 multiplicity 1
 O         0.496676        -0.064149         0.539480
 C        -0.814124         0.232482         0.926843
 C        -1.980327         0.947220         0.059190
 C        -2.421012         0.936500         1.507215
 C        -0.990336         1.438474         1.887602
 C        -3.846025         0.873241         1.947509
 O        -4.239608        -0.550369         1.567594
 C        -3.094862        -1.391581         1.209221
 C        -1.958072        -0.509079         1.744410
 H         0.702475        -0.917472         0.777369
 H        -1.898671         2.020525        -0.283140
 H        -2.425772         0.256888        -0.655782
 H        -0.839642         2.340626         1.383562
 H        -0.741962         1.276971         3.013451
 H        -3.902853         1.015896         3.094795
 H        -4.525662         1.543093         1.448885
 H        -3.127713        -2.379396         1.753102
 H        -3.050665        -1.636978         0.156900
 H        -1.710656        -0.722393         2.812805
