19
Iteration:  2698charge 0 multiplicity 1
 O         0.426986        -0.202595         0.518273
 C        -0.859752         0.296251         0.913189
 C        -1.961984         0.865398        -0.062364
 C        -2.418720         1.045931         1.508012
 C        -1.063304         1.530756         1.900965
 C        -3.934592         0.786701         1.956274
 O        -4.260838        -0.566718         1.431916
 C        -2.961079        -1.414475         1.465919
 C        -1.820584        -0.448638         1.859920
 H         0.655192         0.172227        -0.357823
 H        -2.006230         1.849728        -0.506046
 H        -2.383239         0.062015        -0.751797
 H        -0.736810         2.484449         1.450960
 H        -0.641074         1.593105         3.014442
 H        -4.004662         0.842960         3.081298
 H        -4.695720         1.413254         1.482993
 H        -3.136904        -2.193573         2.206845
 H        -2.791576        -1.897248         0.430885
 H        -1.346698        -0.676726         2.843196
