19
Iteration:  1969charge 0 multiplicity 1
 O         0.493834        -0.064312         0.490353
 C        -0.765015         0.341104         0.881280
 C        -1.880675         0.862576        -0.026600
 C        -2.469677         0.906330         1.430803
 C        -0.950867         1.429393         1.907991
 C        -3.971334         0.820080         2.022516
 O        -4.292319        -0.549606         1.625071
 C        -3.121288        -1.334453         1.291071
 C        -1.892097        -0.528854         1.723646
 H         0.820344        -0.292169         1.355219
 H        -1.716620         1.748450        -0.685150
 H        -2.372455         0.164555        -0.698310
 H        -0.891519         2.442601         1.587248
 H        -0.579250         1.270630         3.009213
 H        -3.917008         0.936594         3.109743
 H        -4.819300         1.377360         1.583810
 H        -3.179879        -2.352776         1.774807
 H        -3.235972        -1.355755         0.248853
 H        -1.388819        -0.780882         2.695057
