19
Iteration:  2351charge 0 multiplicity 1
 O         0.249890        -0.237514         0.280964
 C        -0.783352         0.275786         0.979396
 C        -1.971453         0.856912         0.127011
 C        -2.444729         0.971038         1.596424
 C        -0.981705         1.543401         2.086542
 C        -3.940322         0.771442         1.913678
 O        -4.154579        -0.547921         1.289396
 C        -2.960641        -1.295354         1.334079
 C        -1.856744        -0.377436         1.859228
 H         1.109503        -0.280837         0.844910
 H        -1.945073         1.789118        -0.523681
 H        -2.609579         0.091195        -0.400215
 H        -0.676046         2.497673         1.593868
 H        -0.441821         1.221507         3.126815
 H        -4.136704         0.551037         2.996610
 H        -4.759009         1.468640         1.640370
 H        -2.938319        -2.117591         2.109931
 H        -2.805988        -1.786611         0.347219
 H        -1.726293        -0.527378         2.964702
