19
Iteration:  2527charge 0 multiplicity 1
 O         0.437565        -0.270049         0.357939
 C        -0.721032         0.379137         0.935546
 C        -1.937073         0.925694        -0.009840
 C        -2.455280         0.938533         1.536689
 C        -1.113767         1.575405         2.046018
 C        -3.921098         0.820657         1.771605
 O        -4.239679        -0.654994         1.784677
 C        -3.004475        -1.321002         1.270010
 C        -1.910737        -0.441834         1.698791
 H         1.010330        -0.445496         1.193076
 H        -1.576990         1.844759        -0.376503
 H        -2.413446         0.119972        -0.617579
 H        -0.755825         2.555648         1.755579
 H        -1.038898         1.371340         3.087432
 H        -4.154525         1.190386         2.764959
 H        -4.477016         1.446253         1.031621
 H        -2.859511        -2.373425         1.573706
 H        -3.059107        -1.376120         0.190626
 H        -1.748804        -0.769157         2.730092
