19
Iteration:  3681
 O         0.440074        -0.200490         0.472312
 C        -0.801666         0.361118         0.894318
 C        -1.877585         0.751736        -0.125820
 C        -2.454799         0.826872         1.387386
 C        -1.236351         1.666407         1.875705
 C        -3.864369         0.825795         1.907427
 O        -4.205170        -0.556429         1.830622
 C        -3.067972        -1.336235         1.318524
 C        -1.798643        -0.505113         1.779926
 H         1.243914         0.391936         0.866133
 H        -1.770237         1.641622        -0.696698
 H        -2.399627        -0.158105        -0.630057
 H        -1.008550         2.638201         1.471577
 H        -1.026757         1.455371         2.953393
 H        -3.873729         1.122985         2.981602
 H        -4.641434         1.487295         1.407162
 H        -3.288307        -2.233244         1.910666
 H        -3.071104        -1.568963         0.264809
 H        -1.373699        -0.473518         2.778160
