19
Iteration:  2165charge 0 multiplicity 1
 O         0.454086        -0.187669         0.389457
 C        -0.746214         0.330985         0.934339
 C        -1.875324         0.935502        -0.001908
 C        -2.470486         0.901290         1.503935
 C        -1.157594         1.509647         2.082772
 C        -3.911333         0.860157         1.840253
 O        -4.226404        -0.525840         1.793944
 C        -3.055141        -1.367431         1.208095
 C        -1.844754        -0.566434         1.634137
 H         0.963410        -0.572556         1.019168
 H        -1.647573         1.948919        -0.458601
 H        -2.300612         0.278228        -0.716913
 H        -0.943609         2.537451         1.826764
 H        -1.097213         1.201746         3.182850
 H        -4.295114         1.212845         2.840265
 H        -4.500661         1.491171         1.124988
 H        -2.976061        -2.423538         1.600518
 H        -3.203545        -1.522288         0.089056
 H        -1.576952        -0.693982         2.739919
