19
Iteration:  3282
 O         0.361355        -0.194701         0.481901
 C        -0.885739         0.285890         0.878980
 C        -2.039818         0.850954         0.019745
 C        -2.468820         0.994032         1.592082
 C        -0.894097         1.557962         1.724965
 C        -4.009659         0.780072         1.768585
 O        -4.151944        -0.660641         1.492918
 C        -2.930479        -1.336543         1.662639
 C        -1.812413        -0.331579         1.887064
 H         0.330254        -0.524925        -0.380680
 H        -2.009562         1.839583        -0.455872
 H        -2.578436        -0.001981        -0.614707
 H        -0.893186         2.548813         1.331678
 H        -0.421105         1.657215         2.733409
 H        -4.410862         0.889750         2.806437
 H        -4.652522         1.331826         1.055731
 H        -2.820435        -2.087656         2.434305
 H        -2.647353        -1.958669         0.764044
 H        -1.420897        -0.332924         2.923223
