19
Iteration:  4654
 O         0.362184        -0.395307         0.412853
 C        -0.770603         0.361483         0.815031
 C        -2.006227         0.866603         0.044734
 C        -2.449914         1.000875         1.467883
 C        -1.229284         1.689771         1.937729
 C        -3.877292         0.808401         1.726090
 O        -4.122291        -0.612522         1.726551
 C        -2.894605        -1.365012         1.461974
 C        -1.844090        -0.348526         1.761700
 H         0.672716        -0.913827         1.326930
 H        -1.940089         1.826182        -0.577463
 H        -2.388908         0.006135        -0.547713
 H        -1.006719         2.648797         1.440373
 H        -1.114039         1.694242         3.023825
 H        -4.264038         1.109488         2.720629
 H        -4.655426         1.296238         1.058358
 H        -2.712281        -2.120284         2.202789
 H        -2.881726        -1.662699         0.379678
 H        -1.348161        -0.638582         2.757933
