19
Iteration:  4529charge 0 multiplicity 1
 O         0.460648        -0.187438         0.478923
 C        -0.758327         0.388334         0.897960
 C        -1.934431         0.675945        -0.080384
 C        -2.508967         0.896710         1.416405
 C        -1.084875         1.661778         1.713971
 C        -3.938999         0.807627         1.928183
 O        -4.249222        -0.607761         1.786761
 C        -2.993404        -1.272865         1.351748
 C        -1.855484        -0.433321         1.838915
 H         1.141520        -0.282998         1.311950
 H        -1.632297         1.521748        -0.752096
 H        -2.387685        -0.083541        -0.713157
 H        -1.033048         2.684036         1.379638
 H        -0.862617         1.618973         2.770430
 H        -3.993772         1.136922         2.973076
 H        -4.686165         1.215682         1.328041
 H        -2.919020        -2.202787         1.996016
 H        -3.102057        -1.656800         0.314109
 H        -1.682211        -0.632333         2.940514
