19
Iteration:   838charge 0 multiplicity 1
 O         0.421450        -0.161869         0.326164
 C        -0.824411         0.255828         1.013853
 C        -1.967607         0.957888         0.074788
 C        -2.407713         0.983215         1.507431
 C        -1.021625         1.480631         1.957336
 C        -3.909631         0.745327         1.962196
 O        -4.166060        -0.498715         1.335318
 C        -3.028331        -1.356246         1.386555
 C        -1.901757        -0.462334         1.893234
 H         0.256248        -1.186773         0.666889
 H        -1.646967         1.950317        -0.167218
 H        -2.381941         0.275463        -0.742771
 H        -0.858662         2.580946         1.698271
 H        -0.777966         1.347131         2.965022
 H        -3.993034         0.676063         3.131027
 H        -4.784421         1.406683         1.539983
 H        -3.189474        -2.297895         2.037388
 H        -2.876626        -1.550042         0.299072
 H        -1.762169        -0.591075         3.029558
