19
Iteration:    74
 O         0.424742        -0.156430         0.454856
 C        -0.798175         0.308657         0.961715
 C        -1.853939         0.782081        -0.013701
 C        -2.463361         1.027115         1.335955
 C        -1.115954         1.598396         1.886747
 C        -3.872205         0.864614         1.770983
 O        -4.192699        -0.614541         1.806548
 C        -3.127169        -1.422095         1.405332
 C        -1.860514        -0.496784         1.711465
 H         1.116535        -0.028488         1.062550
 H        -1.708300         1.709289        -0.600488
 H        -2.337480         0.041138        -0.550948
 H        -0.745005         2.533521         1.550681
 H        -1.012378         1.314127         2.998110
 H        -3.976176         1.284833         2.862555
 H        -4.680710         1.351158         1.238763
 H        -3.111443        -2.298585         2.026823
 H        -3.218667        -1.679107         0.330029
 H        -1.610458        -0.552082         2.797305
