19
Iteration:  1486
 O         0.418104        -0.176870         0.443606
 C        -0.797073         0.308830         0.964086
 C        -2.084385         0.861787         0.136144
 C        -2.402931         0.956446         1.613861
 C        -1.073349         1.525730         2.068920
 C        -3.909302         0.801164         1.955621
 O        -4.131045        -0.471960         1.283150
 C        -3.053567        -1.315621         1.358896
 C        -1.781928        -0.542756         1.711587
 H         0.149117        -0.753851        -0.434647
 H        -2.008925         1.781851        -0.449541
 H        -2.699093         0.160146        -0.393261
 H        -0.623872         2.527381         1.799925
 H        -0.623922         1.123622         3.071177
 H        -4.260997         0.895120         2.970634
 H        -4.438939         1.506798         1.264094
 H        -3.138787        -1.963067         2.307449
 H        -3.023352        -1.890518         0.462590
 H        -1.354916        -0.859219         2.659169
