19
Iteration:  4168
 O         0.391558        -0.171633         0.276153
 C        -0.768412         0.331567         0.942638
 C        -1.998149         0.787617         0.010372
 C        -2.493990         0.962033         1.488452
 C        -1.053805         1.607047         1.801804
 C        -3.989992         0.724223         1.796169
 O        -4.222522        -0.626985         1.480671
 C        -2.884038        -1.325405         1.649862
 C        -1.820086        -0.332976         1.972756
 H         0.868320        -0.812613         1.011329
 H        -1.851235         1.644558        -0.616943
 H        -2.724396         0.041442        -0.436300
 H        -0.708277         2.519025         1.364254
 H        -0.782722         1.612729         2.847867
 H        -4.184116         0.798822         2.853801
 H        -4.723488         1.347662         1.363256
 H        -3.096112        -2.014178         2.432765
 H        -2.712052        -1.927704         0.764973
 H        -1.357039        -0.192843         2.947724
