19
Iteration:  1746
 O         0.295531        -0.243749         0.396570
 C        -0.862870         0.259436         0.962827
 C        -2.026596         0.874115         0.159969
 C        -2.436664         1.084268         1.611907
 C        -0.954653         1.468631         1.905239
 C        -3.912897         0.801561         1.943250
 O        -4.146403        -0.547544         1.280378
 C        -2.920883        -1.363457         1.371313
 C        -1.902973        -0.456915         1.895925
 H         0.959823         0.467783        -0.017359
 H        -1.807737         1.846211        -0.323829
 H        -2.640863         0.319370        -0.492317
 H        -0.516293         2.534245         1.483132
 H        -0.626533         1.385687         2.892313
 H        -4.116039         0.695466         3.036078
 H        -4.630928         1.470225         1.498542
 H        -3.184428        -2.098339         2.075099
 H        -2.596909        -1.890303         0.475261
 H        -1.687195        -0.799377         2.928993
