19
Iteration:  1604
 O         0.415459        -0.312088         0.512215
 C        -0.758473         0.351748         0.932532
 C        -1.779905         1.007215        -0.066213
 C        -2.490252         0.991920         1.473923
 C        -0.989861         1.426513         2.026845
 C        -4.034159         0.729199         1.781683
 O        -4.205478        -0.671005         1.877899
 C        -3.082104        -1.302110         1.209524
 C        -1.953547        -0.341767         1.690281
 H         1.091744         0.542985         0.218524
 H        -1.684929         1.988564        -0.604671
 H        -2.281588         0.331594        -0.758057
 H        -0.674090         2.470960         1.928674
 H        -0.648277         1.169669         2.939469
 H        -4.332742         1.181095         2.820477
 H        -4.716517         1.093523         1.027325
 H        -3.063356        -2.395510         1.502027
 H        -3.240268        -1.170151         0.111955
 H        -1.419772        -0.561826         2.604793
