19
Iteration:  2193
 O         0.338428        -0.234462         0.419162
 C        -0.844101         0.310557         0.944641
 C        -1.815886         1.086399         0.066029
 C        -2.468589         0.975901         1.497002
 C        -0.985207         1.453943         1.968672
 C        -3.936749         0.781852         1.748875
 O        -4.207499        -0.661381         1.851125
 C        -2.999961        -1.378554         1.196847
 C        -1.937712        -0.431317         1.707035
 H         0.768541        -0.724827         1.038321
 H        -1.421338         2.058197        -0.216981
 H        -2.286598         0.578990        -0.856521
 H        -0.590031         2.475671         1.721754
 H        -0.972716         1.448713         3.096698
 H        -4.319998         1.103139         2.701605
 H        -4.475081         1.262186         0.909739
 H        -2.806008        -2.381553         1.464117
 H        -3.111611        -1.243523         0.141881
 H        -1.692889        -0.549157         2.732431
