19
Iteration:  3440
 O         0.429515        -0.146825         0.423859
 C        -0.811563         0.355218         0.908349
 C        -1.935148         0.851729        -0.024525
 C        -2.474368         0.949788         1.390623
 C        -1.095167         1.553819         1.859310
 C        -3.952480         0.762446         1.659561
 O        -4.191566        -0.595240         1.924694
 C        -3.008129        -1.321947         1.467915
 C        -1.808474        -0.433451         1.786889
 H         0.512956        -1.146282         0.744983
 H        -1.746930         1.798349        -0.501253
 H        -2.417411         0.229649        -0.691096
 H        -0.659934         2.534081         1.612949
 H        -0.849369         1.286861         2.883292
 H        -4.335344         1.313335         2.513034
 H        -4.581766         0.967299         0.763405
 H        -2.904660        -2.327097         1.947315
 H        -3.026183        -1.480218         0.391321
 H        -1.440506        -0.621766         2.791712
