19
Iteration:  1116charge 0 multiplicity 1
 O         0.440250        -0.136901         0.458651
 C        -0.778209         0.320604         0.882804
 C        -1.945482         0.875244         0.042635
 C        -2.427240         0.923317         1.561414
 C        -1.066040         1.456342         2.063856
 C        -3.903445         0.851046         1.944781
 O        -4.269924        -0.495001         1.475782
 C        -3.098118        -1.326547         1.271563
 C        -1.826063        -0.552383         1.657924
 H         0.883341        -0.690521         1.158318
 H        -1.790420         1.867467        -0.404483
 H        -2.415463         0.186878        -0.701932
 H        -0.896741         2.489323         1.892404
 H        -0.661993         1.063394         3.114717
 H        -3.828541         0.848753         3.065646
 H        -4.674000         1.533491         1.567942
 H        -3.052045        -2.116577         1.969532
 H        -3.016780        -1.568706         0.220783
 H        -1.408488        -0.782497         2.655564
