19
Iteration:  3167
 O         0.387892        -0.177932         0.495317
 C        -0.794959         0.345357         0.915207
 C        -1.851323         0.671498        -0.052441
 C        -2.499147         0.850207         1.386100
 C        -1.231882         1.553273         1.821459
 C        -3.918050         0.941645         1.748617
 O        -4.188091        -0.566970         1.881860
 C        -2.957840        -1.326535         1.467621
 C        -1.786803        -0.489154         1.735665
 H         0.845099         0.660184         0.032858
 H        -1.755540         1.714316        -0.520496
 H        -2.217295        -0.049884        -0.698889
 H        -0.908283         2.551957         1.530646
 H        -1.062189         1.464800         2.864876
 H        -4.127101         1.377214         2.766733
 H        -4.541028         1.443875         0.974336
 H        -2.909661        -2.220606         2.078058
 H        -3.225247        -1.642415         0.491761
 H        -1.482482        -0.658858         2.789962
