19
Iteration:  2613charge 0 multiplicity 1
 O         0.383930        -0.118369         0.475664
 C        -0.814750         0.262066         0.906009
 C        -1.930694         0.801496         0.006358
 C        -2.442906         0.958615         1.457874
 C        -1.091497         1.552457         1.901208
 C        -3.796834         0.839015         1.970784
 O        -4.277596        -0.503704         1.485501
 C        -3.027522        -1.448524         1.408901
 C        -1.843020        -0.557505         1.799316
 H         1.018387         0.573645         0.683457
 H        -1.624145         1.828088        -0.459478
 H        -2.534648         0.157518        -0.752381
 H        -0.987372         2.562846         1.561229
 H        -0.723980         1.353328         2.937616
 H        -3.836460         0.877545         3.074156
 H        -4.561194         1.479784         1.515534
 H        -3.195563        -2.301417         2.083668
 H        -2.989721        -1.605726         0.313082
 H        -1.570979        -0.582311         2.853748
