19
Iteration:  3206charge 0 multiplicity 1
 O         0.571420        -0.157818         0.622797
 C        -0.792854         0.306279         0.821278
 C        -2.077538         0.726368        -0.042104
 C        -2.476587         0.935755         1.458900
 C        -1.019293         1.585706         1.645855
 C        -3.914029         0.836845         1.935320
 O        -4.292462        -0.604740         1.677560
 C        -3.054286        -1.388805         1.474919
 C        -1.874509        -0.375250         1.779373
 H         1.223700         0.583763         0.354460
 H        -1.996102         1.611500        -0.645963
 H        -2.699046        -0.140192        -0.540058
 H        -0.687248         2.479800         1.074689
 H        -0.569363         1.511139         2.710692
 H        -3.932503         1.062768         2.986741
 H        -4.680339         1.379081         1.373407
 H        -2.936295        -2.077169         2.350058
 H        -2.945222        -1.916959         0.478624
 H        -1.402890        -0.533410         2.775125
