19
Iteration:  1518
 O         0.498188        -0.091451         0.479834
 C        -0.770177         0.283954         0.967778
 C        -1.858941         0.902582         0.050796
 C        -2.431635         0.894237         1.503956
 C        -1.039816         1.497150         1.885710
 C        -3.807279         0.775192         2.023096
 O        -4.289657        -0.526235         1.447050
 C        -3.187266        -1.382392         1.337261
 C        -1.960849        -0.508411         1.813429
 H         0.591874         0.319393        -0.297387
 H        -1.549889         1.889585        -0.304979
 H        -2.383195         0.385569        -0.747833
 H        -0.671071         2.507362         1.517682
 H        -0.611358         1.180297         2.895867
 H        -3.947995         0.771046         3.066796
 H        -4.583651         1.369798         1.557477
 H        -3.343333        -2.348940         1.912542
 H        -3.054488        -1.739401         0.335542
 H        -1.778998        -0.712776         2.851215
