19
Iteration:  1443
 O         0.357626        -0.142309         0.350957
 C        -0.842571         0.246102         0.997089
 C        -1.929485         0.943732         0.156620
 C        -2.484178         1.024506         1.632874
 C        -0.936273         1.474760         1.917897
 C        -3.932628         0.721559         1.953764
 O        -4.179186        -0.488597         1.295330
 C        -3.049934        -1.348547         1.317556
 C        -1.824880        -0.480890         1.860840
 H         0.662059        -1.129594         0.597600
 H        -1.476169         1.872119        -0.211811
 H        -2.424182         0.514477        -0.708098
 H        -0.740970         2.490792         1.547156
 H        -0.816066         1.432329         3.071577
 H        -4.142372         0.488746         3.043009
 H        -4.746121         1.439595         1.552161
 H        -3.291215        -2.162475         2.110962
 H        -3.001897        -1.749004         0.321236
 H        -1.545022        -0.782142         2.883134
