19
Iteration:  3309
 O         0.404914        -0.092564         0.390505
 C        -0.849179         0.292097         0.918940
 C        -2.049075         0.728630        -0.013188
 C        -2.458706         0.971473         1.475682
 C        -1.113718         1.618361         1.804473
 C        -3.888260         0.887984         1.808983
 O        -4.143848        -0.536333         1.515521
 C        -2.985812        -1.446801         1.629654
 C        -1.714628        -0.496585         1.898144
 H         0.379572        -1.016012         0.287201
 H        -1.973770         1.693345        -0.509116
 H        -2.492938         0.021335        -0.590138
 H        -1.005974         2.689673         1.439190
 H        -0.967730         1.618944         2.875542
 H        -4.127128         1.015799         2.852452
 H        -4.605877         1.475639         1.226827
 H        -3.069116        -2.103357         2.534843
 H        -2.916932        -2.122762         0.784893
 H        -1.345436        -0.579072         2.923375
