19
Iteration:  4910
 O         0.495264        -0.108067         0.430887
 C        -0.791634         0.284717         0.952849
 C        -1.940095         0.707256        -0.015704
 C        -2.436822         0.951002         1.452108
 C        -1.071418         1.586352         1.871307
 C        -3.914702         0.920216         1.830214
 O        -4.226788        -0.603838         1.640824
 C        -3.046235        -1.439049         1.506705
 C        -1.900350        -0.468885         1.797810
 H         0.721429         0.597409        -0.054375
 H        -1.795919         1.540028        -0.693183
 H        -2.639792        -0.075239        -0.465265
 H        -0.668486         2.537706         1.491717
 H        -0.893019         1.462018         2.970609
 H        -4.142846         1.317686         2.835746
 H        -4.646416         1.307707         1.080281
 H        -3.014896        -2.333182         2.184115
 H        -3.031303        -1.762821         0.484297
 H        -1.632678        -0.418710         2.879236
