19
Iteration:  4914charge 0 multiplicity 1
 O         0.470623        -0.136840         0.449059
 C        -0.823333         0.282811         0.950347
 C        -1.952330         0.678768         0.008296
 C        -2.449440         0.957194         1.443684
 C        -1.039693         1.632634         1.882612
 C        -3.880277         0.913317         1.830623
 O        -4.205418        -0.614583         1.635427
 C        -3.050705        -1.398847         1.471849
 C        -1.903044        -0.485735         1.816844
 H         0.782732         0.779641        -0.043728
 H        -1.953379         1.481082        -0.725718
 H        -2.606494        -0.013652        -0.441784
 H        -0.628090         2.541036         1.378342
 H        -0.810250         1.616168         2.947807
 H        -4.145597         1.185022         2.898549
 H        -4.623782         1.131086         1.085155
 H        -3.015348        -2.315366         2.042596
 H        -3.038086        -1.716419         0.413544
 H        -1.682726        -0.347888         2.848810
