19
Iteration:  3851charge 0 multiplicity 1
 O         0.306858        -0.222851         0.412823
 C        -0.811654         0.357659         0.904915
 C        -1.914180         0.747797        -0.045135
 C        -2.495027         1.011824         1.477340
 C        -0.998541         1.656066         1.732246
 C        -3.970827         0.714827         1.993224
 O        -4.161840        -0.596778         1.449315
 C        -3.002841        -1.375855         1.665646
 C        -1.843195        -0.408874         1.827624
 H         1.089951         0.308557         0.697018
 H        -1.589556         1.516260        -0.775354
 H        -2.410315        -0.015849        -0.611213
 H        -0.849618         2.634292         1.272924
 H        -0.772664         1.778756         2.822353
 H        -3.950257         0.760373         3.122337
 H        -4.773992         1.345601         1.629387
 H        -3.093249        -2.118119         2.435481
 H        -2.828607        -1.914945         0.740499
 H        -1.380361        -0.340803         2.793027
