19
Iteration:  4014charge 0 multiplicity 1
 O         0.391353        -0.175922         0.461103
 C        -0.807794         0.297819         0.964930
 C        -1.885079         0.807278        -0.091021
 C        -2.482830         0.881506         1.358009
 C        -0.977897         1.645983         1.712052
 C        -3.993214         0.773563         1.695199
 O        -4.164334        -0.657729         1.955910
 C        -3.027133        -1.349142         1.499278
 C        -1.895598        -0.400426         1.894412
 H         0.914848         0.694623         0.113819
 H        -1.763342         1.812564        -0.516797
 H        -2.361112         0.142242        -0.854762
 H        -0.701924         2.538387         1.196474
 H        -0.874641         1.638879         2.800526
 H        -4.368880         1.387231         2.556061
 H        -4.539904         0.939563         0.775347
 H        -3.025703        -2.315603         2.103409
 H        -3.061926        -1.564268         0.393835
 H        -1.681167        -0.538526         2.982935
