19
Iteration:  1540
 O         0.517813        -0.133332         0.564379
 C        -0.763584         0.286591         0.930486
 C        -1.917100         0.825191         0.037661
 C        -2.460208         0.975478         1.471721
 C        -1.037064         1.429430         1.946400
 C        -3.937845         0.833415         1.974966
 O        -4.338548        -0.511861         1.660600
 C        -3.067164        -1.370729         1.203576
 C        -1.860349        -0.489985         1.641147
 H         0.995434         0.695330         0.048868
 H        -1.765865         1.713642        -0.589356
 H        -2.428655         0.124971        -0.599711
 H        -0.756784         2.461424         1.569565
 H        -0.680504         1.171945         3.040529
 H        -3.969221         0.916277         3.064143
 H        -4.585486         1.602706         1.521957
 H        -3.133556        -2.364922         1.750463
 H        -3.224394        -1.656630         0.186371
 H        -1.469280        -0.928848         2.543571
