19
Iteration:  4951
 O         0.395856        -0.399249         0.646643
 C        -0.836594         0.264685         0.774676
 C        -2.021359         0.858698        -0.081574
 C        -2.507903         0.973621         1.457627
 C        -1.164581         1.717467         1.788211
 C        -3.943438         0.830225         2.014636
 O        -4.162662        -0.623824         1.588405
 C        -2.872018        -1.339380         1.418093
 C        -1.774807        -0.402543         1.795069
 H         1.195997         0.282883         0.457818
 H        -1.946083         1.930486        -0.443566
 H        -2.504976         0.090335        -0.743205
 H        -1.064942         2.561905         1.138045
 H        -0.659372         1.901239         2.748915
 H        -4.225396         0.967332         3.044549
 H        -4.603640         1.508090         1.444501
 H        -2.991383        -2.280270         2.008050
 H        -2.696542        -1.598075         0.319883
 H        -1.455857        -0.555697         2.868923
