19
Iteration:   562
 O         0.366116        -0.303861         0.337175
 C        -0.815189         0.313480         0.923146
 C        -1.965987         0.906251         0.047948
 C        -2.524418         1.002052         1.566008
 C        -1.034563         1.499773         1.961202
 C        -3.953174         0.819893         1.999448
 O        -4.143264        -0.524395         1.282614
 C        -3.000951        -1.337831         1.399274
 C        -1.839827        -0.421102         1.895110
 H         1.201982        -0.361904         0.985833
 H        -1.743763         1.899349        -0.361047
 H        -2.468333         0.338361        -0.644529
 H        -0.965226         2.573332         1.816540
 H        -0.580050         1.362607         2.991511
 H        -3.975126         0.609193         3.012680
 H        -4.834672         1.365829         1.749386
 H        -3.180131        -2.192224         2.164942
 H        -2.524092        -1.754346         0.460322
 H        -1.558849        -0.691381         2.982232
