19
Iteration:  4845
 O         0.494450        -0.046430         0.515810
 C        -0.759407         0.265438         0.908844
 C        -1.982333         0.788877        -0.064927
 C        -2.492170         0.920010         1.422744
 C        -1.017308         1.519982         1.778966
 C        -3.966412         0.805672         1.922679
 O        -4.238782        -0.578653         1.605888
 C        -3.012740        -1.321045         1.504263
 C        -1.871830        -0.404493         1.793899
 H         0.558229        -0.998273         0.595886
 H        -1.805306         1.603271        -0.662185
 H        -2.550552         0.064815        -0.680952
 H        -0.696970         2.509306         1.428002
 H        -0.765545         1.318213         2.851426
 H        -4.032655         0.865204         3.036611
 H        -4.661644         1.432478         1.374176
 H        -3.114290        -2.170170         2.186032
 H        -2.948260        -1.708155         0.518762
 H        -1.512393        -0.513457         2.806984
