19
Iteration:   370charge 0 multiplicity 1
 O         0.492017        -0.086115         0.472985
 C        -0.806109         0.292691         0.924175
 C        -1.954392         0.842019         0.031258
 C        -2.473986         1.001682         1.460142
 C        -1.100447         1.485574         1.945660
 C        -3.904077         0.887946         1.808430
 O        -4.214634        -0.548356         1.673835
 C        -3.039401        -1.407240         1.419729
 C        -1.858148        -0.506381         1.712809
 H         0.459924        -1.076057         0.013201
 H        -1.658843         1.810709        -0.542813
 H        -2.364769        -0.052429        -0.550677
 H        -0.733007         2.537715         1.726606
 H        -0.933739         1.216111         2.948935
 H        -4.173003         1.235521         2.831146
 H        -4.452653         1.449789         1.050427
 H        -3.168821        -2.262288         2.122497
 H        -2.989845        -1.861850         0.331369
 H        -1.449880        -0.705336         2.699493
