19
Iteration:  4425charge 0 multiplicity 1
 O         0.441239        -0.084073         0.488416
 C        -0.828783         0.288759         0.873442
 C        -2.079677         0.568546        -0.045934
 C        -2.467276         0.899067         1.526346
 C        -1.168066         1.627510         1.689629
 C        -3.818167         0.838725         1.967716
 O        -4.183362        -0.450619         1.432924
 C        -2.956769        -1.389793         1.553192
 C        -1.781119        -0.467356         1.863559
 H         1.113314         0.051623         1.062391
 H        -2.128224         1.553185        -0.468483
 H        -2.562009        -0.241866        -0.694068
 H        -1.103621         2.685580         1.290470
 H        -0.717210         1.656713         2.751895
 H        -3.979990         0.825316         3.037851
 H        -4.516554         1.659025         1.554404
 H        -3.178433        -1.819318         2.575410
 H        -3.045571        -2.169707         0.750162
 H        -1.474089        -0.741864         2.850879
