19
Iteration:  3019charge 0 multiplicity 1
 O         0.496623        -0.188924         0.492414
 C        -0.840505         0.340646         0.862928
 C        -2.082639         0.705567        -0.069698
 C        -2.498754         0.933818         1.477428
 C        -1.129437         1.598184         1.749712
 C        -3.891134         0.892504         1.953715
 O        -4.213897        -0.557475         1.473282
 C        -2.983708        -1.415197         1.593675
 C        -1.765760        -0.440886         1.862721
 H         1.059404         0.522283         0.591771
 H        -1.931154         1.566957        -0.655448
 H        -2.645789        -0.116877        -0.522039
 H        -0.766558         2.687167         1.538230
 H        -0.777914         1.275397         2.756382
 H        -4.038301         1.028417         3.034483
 H        -4.587983         1.473352         1.337161
 H        -3.062771        -2.109047         2.430911
 H        -2.878373        -1.940264         0.637148
 H        -1.260129        -0.537444         2.828069
