19
Iteration:  3257
 O         0.392919        -0.342235         0.425128
 C        -0.809803         0.345846         0.973568
 C        -1.956377         0.748694         0.028564
 C        -2.486036         1.011498         1.465173
 C        -1.058849         1.723369         1.751980
 C        -3.985998         0.743854         1.917534
 O        -4.219173        -0.582349         1.482147
 C        -2.901523        -1.389172         1.593512
 C        -1.816088        -0.336212         1.869504
 H         0.702652         0.087050        -0.483420
 H        -1.857448         1.653330        -0.642966
 H        -2.535348        -0.138493        -0.392213
 H        -0.797880         2.663600         1.269769
 H        -0.741880         1.821186         2.768732
 H        -4.068963         0.820808         3.059360
 H        -4.801055         1.303536         1.454085
 H        -2.814515        -2.220809         2.269868
 H        -2.717891        -1.829440         0.600342
 H        -1.639651        -0.261755         2.982394
