19
Iteration:  4623charge 0 multiplicity 1
 O         0.341219        -0.127812         0.355359
 C        -0.790217         0.289721         0.996888
 C        -1.880631         0.786003         0.057522
 C        -2.455329         0.999006         1.445187
 C        -1.044835         1.549468         1.754064
 C        -3.975845         0.778959         1.702568
 O        -4.209334        -0.635480         1.840964
 C        -2.944789        -1.311136         1.390442
 C        -1.942475        -0.430384         1.926390
 H         0.978464        -0.484141         0.884492
 H        -1.472966         1.702224        -0.440577
 H        -2.142602         0.121361        -0.719975
 H        -0.707478         2.442900         1.143430
 H        -0.844919         1.678906         2.843107
 H        -4.362206         1.291469         2.641848
 H        -4.501300         1.176825         0.710637
 H        -2.733008        -2.287809         1.843276
 H        -2.980366        -1.504524         0.327148
 H        -1.609399        -0.579163         2.958260
