19
Iteration:   494charge 0 multiplicity 1
 O         0.560237        -0.016841         0.546529
 C        -0.811239         0.230591         0.925474
 C        -1.899956         0.819593        -0.004335
 C        -2.435146         0.917839         1.429789
 C        -1.055255         1.428680         1.945097
 C        -3.904199         0.833827         1.889650
 O        -4.345378        -0.556402         1.633366
 C        -3.060209        -1.274192         1.336742
 C        -1.878456        -0.507628         1.744404
 H         0.486116        -0.557531        -0.298812
 H        -1.642306         1.667672        -0.603130
 H        -2.422935         0.084627        -0.674702
 H        -0.839962         2.442590         1.736002
 H        -0.867079         1.239839         3.030788
 H        -3.829512         1.009957         2.923839
 H        -4.604276         1.527265         1.492828
 H        -3.098812        -2.241205         1.886303
 H        -3.174275        -1.419445         0.203363
 H        -1.576625        -0.675211         2.830288
