19
Iteration:  2316
 O         0.386730        -0.181484         0.381293
 C        -0.821832         0.230276         0.957126
 C        -2.020057         0.951668         0.100592
 C        -2.383946         0.870339         1.613728
 C        -1.093159         1.489377         1.938680
 C        -3.891265         0.826778         1.935503
 O        -4.188999        -0.499048         1.356051
 C        -3.020283        -1.338082         1.362394
 C        -1.840496        -0.536906         1.781368
 H         0.945595         0.275297         1.056203
 H        -1.627929         2.011584        -0.292928
 H        -2.669423         0.401299        -0.573811
 H        -0.960365         2.445336         1.480475
 H        -0.485398         1.558259         3.032770
 H        -4.037965         0.666852         3.033966
 H        -4.410903         1.666426         1.475858
 H        -3.116600        -2.105403         2.141938
 H        -3.095247        -1.841489         0.389014
 H        -1.522814        -0.829668         2.772684
