19
Iteration:  4610charge 0 multiplicity 1
 O         0.491798        -0.070697         0.342670
 C        -0.781595         0.236503         0.948275
 C        -1.857302         0.747763         0.025688
 C        -2.509433         0.925824         1.451551
 C        -0.998022         1.593740         1.823430
 C        -3.991506         0.829434         1.706799
 O        -4.220025        -0.653441         1.853750
 C        -3.091258        -1.382016         1.424143
 C        -1.886320        -0.377231         1.833058
 H         1.148042        -0.219567         1.156732
 H        -1.800810         1.710051        -0.543288
 H        -2.480643        -0.020306        -0.503286
 H        -0.755549         2.494906         1.236421
 H        -0.628929         1.674020         2.863011
 H        -4.311325         1.332167         2.648395
 H        -4.725173         1.205122         0.892584
 H        -3.297590        -2.311915         1.895821
 H        -3.066728        -1.443727         0.312794
 H        -1.708611        -0.440138         2.947299
