19
Iteration:  3858
 O         0.315875        -0.219920         0.372062
 C        -0.794796         0.348666         0.894815
 C        -1.935497         0.775866         0.026829
 C        -2.463219         1.009279         1.452785
 C        -0.976047         1.688431         1.760029
 C        -3.964157         0.727145         1.944946
 O        -4.195836        -0.642993         1.453781
 C        -2.997791        -1.422631         1.630739
 C        -1.858064        -0.317544         1.865163
 H         1.001363         0.162520         0.776146
 H        -1.740648         1.594310        -0.722365
 H        -2.371805        -0.129907        -0.396146
 H        -0.789566         2.628868         1.207368
 H        -0.470977         1.648081         2.714888
 H        -3.930255         0.645115         3.046984
 H        -4.746523         1.359140         1.485590
 H        -3.110291        -1.949727         2.657732
 H        -2.966370        -2.081992         0.758823
 H        -1.593533        -0.495587         2.941816
