19
Iteration:   537charge 0 multiplicity 1
 O         0.307907        -0.170019         0.443348
 C        -0.839839         0.301695         0.948781
 C        -1.991923         0.899612         0.134015
 C        -2.404365         0.979988         1.626540
 C        -1.002871         1.565019         1.962186
 C        -3.855741         0.813959         1.864224
 O        -4.217701        -0.510128         1.394627
 C        -3.008734        -1.437005         1.343664
 C        -1.798234        -0.508317         1.732931
 H         0.667246        -0.796269         0.936070
 H        -1.910536         1.836465        -0.404443
 H        -2.631282         0.178584        -0.438688
 H        -0.790387         2.420765         1.423539
 H        -0.513330         1.707032         2.913148
 H        -4.205672         0.921703         2.917432
 H        -4.461291         1.500613         1.269131
 H        -3.134600        -2.165181         2.146333
 H        -2.856240        -1.960647         0.363192
 H        -1.455933        -0.848510         2.711246
