19
Iteration:  1557charge 0 multiplicity 1
 O         0.448654        -0.210612         0.601116
 C        -0.820475         0.374240         0.826095
 C        -1.962558         0.895180        -0.042820
 C        -2.421718         0.819304         1.538606
 C        -1.129142         1.464007         1.957697
 C        -3.849537         0.874408         1.921347
 O        -4.188004        -0.564340         1.714755
 C        -3.089377        -1.279102         1.204971
 C        -1.860105        -0.585547         1.668107
 H         1.204877         0.490391         0.489844
 H        -1.898778         1.919305        -0.440364
 H        -2.365294         0.192225        -0.840865
 H        -0.926090         2.540473         1.865915
 H        -0.883126         1.193880         2.966537
 H        -3.984215         1.304745         2.968706
 H        -4.434106         1.477616         1.207742
 H        -3.156231        -2.252039         1.623218
 H        -3.142540        -1.326520         0.061498
 H        -1.657003        -0.615515         2.763794
