19
Iteration:  4321charge 0 multiplicity 1
 O         0.428764        -0.251239         0.599487
 C        -0.865426         0.293307         0.959582
 C        -1.858830         0.899306        -0.030811
 C        -2.552156         0.957738         1.404090
 C        -1.046108         1.672559         1.722337
 C        -4.051976         0.716954         1.619654
 O        -4.065969        -0.675842         2.061650
 C        -3.015216        -1.302273         1.323063
 C        -1.870322        -0.421106         1.810527
 H         0.515760         0.027591        -0.468039
 H        -1.423112         1.854816        -0.400399
 H        -2.368309         0.368216        -0.828864
 H        -0.538767         2.499877         1.268868
 H        -0.758316         1.492652         2.715330
 H        -4.355998         1.291872         2.562110
 H        -4.634785         0.919561         0.694605
 H        -2.941833        -2.307983         1.625767
 H        -3.245769        -1.255258         0.273828
 H        -1.597942        -0.578622         2.906713
