19
Iteration:  3704charge 0 multiplicity 1
 O         0.494991        -0.119067         0.510558
 C        -0.822314         0.283638         0.904430
 C        -1.889567         0.832729        -0.066445
 C        -2.513391         0.955818         1.440782
 C        -1.066884         1.536487         1.748932
 C        -3.948793         0.829159         1.834392
 O        -4.171044        -0.640033         1.980176
 C        -3.048394        -1.339208         1.269276
 C        -1.931004        -0.460364         1.723786
 H         1.082325        -0.093731         1.183220
 H        -1.720565         1.748827        -0.598787
 H        -2.266576        -0.071035        -0.695929
 H        -0.719185         2.441979         1.221364
 H        -0.869594         1.482158         2.840254
 H        -4.211581         1.338480         2.792787
 H        -4.689589         1.186023         1.069083
 H        -2.967933        -2.355390         1.748282
 H        -3.288852        -1.410179         0.215703
 H        -1.553799        -0.497059         2.722201
