19
Iteration:  1644charge 0 multiplicity 1
 O         0.484711        -0.174806         0.535919
 C        -0.822510         0.328681         0.906142
 C        -1.876637         0.925713         0.062402
 C        -2.437506         0.858024         1.587322
 C        -1.139801         1.528120         1.938170
 C        -3.893892         0.829781         1.814745
 O        -4.171249        -0.498977         1.750536
 C        -3.088179        -1.419563         1.187908
 C        -1.890180        -0.572760         1.682845
 H         0.675339         0.282633        -0.189646
 H        -1.645113         1.917321        -0.313464
 H        -2.508535         0.171599        -0.485123
 H        -0.865418         2.596636         1.514774
 H        -0.778173         1.371453         3.044839
 H        -4.029053         1.346015         2.784717
 H        -4.434565         1.431935         1.046715
 H        -3.270428        -2.298628         1.705135
 H        -3.242095        -1.470082         0.077457
 H        -1.794583        -1.023400         2.690021
