19
Iteration:  4621charge 0 multiplicity 1
 O         0.361776        -0.113468         0.349718
 C        -0.784958         0.275082         0.986775
 C        -1.873301         0.785560         0.072795
 C        -2.463477         0.989886         1.443978
 C        -1.032798         1.542828         1.761121
 C        -3.985554         0.783297         1.703978
 O        -4.211321        -0.641857         1.842130
 C        -2.965613        -1.320119         1.393440
 C        -1.948913        -0.404073         1.921251
 H         1.001654        -0.441732         0.933026
 H        -1.513251         1.727033        -0.445943
 H        -2.170186         0.052364        -0.727267
 H        -0.707104         2.378276         1.121187
 H        -0.845119         1.733106         2.822006
 H        -4.292889         1.324172         2.620959
 H        -4.501295         1.152093         0.739184
 H        -2.804845        -2.290417         1.811016
 H        -3.023982        -1.524031         0.300781
 H        -1.569315        -0.569961         2.965277
