19
Iteration:   529charge 0 multiplicity 1
 O         0.372514        -0.131913         0.440046
 C        -0.867773         0.333443         0.970744
 C        -1.981611         0.875637         0.124402
 C        -2.429935         0.958749         1.638414
 C        -0.961386         1.588451         1.913786
 C        -3.876930         0.914798         1.860756
 O        -4.185907        -0.563430         1.424676
 C        -3.049646        -1.420094         1.323425
 C        -1.838940        -0.597748         1.750013
 H         0.599716        -0.912654         0.791408
 H        -1.773436         1.814819        -0.384541
 H        -2.531022         0.182429        -0.412638
 H        -0.966572         2.573862         1.457871
 H        -0.575443         1.562691         3.013186
 H        -4.107158         1.010695         2.862558
 H        -4.547443         1.480769         1.260663
 H        -3.158454        -2.287539         2.086657
 H        -3.094094        -1.953455         0.307498
 H        -1.422944        -0.892075         2.796756
