19
Iteration:   456
 O         0.511195        -0.201490         0.663755
 C        -0.754038         0.266333         0.890932
 C        -1.910809         0.918451        -0.040913
 C        -2.447850         0.877793         1.416647
 C        -1.152541         1.568860         1.889325
 C        -3.847419         0.843843         1.873337
 O        -4.288336        -0.581564         1.819320
 C        -3.135139        -1.300497         1.262393
 C        -1.854306        -0.561490         1.607537
 H         0.938283         0.386695         0.163699
 H        -1.545786         1.940582        -0.380247
 H        -2.448144         0.290694        -0.761578
 H        -0.924571         2.560225         1.362310
 H        -0.834348         1.352347         2.896834
 H        -3.884826         1.072678         3.023031
 H        -4.559949         1.449973         1.216597
 H        -3.047008        -2.272164         1.748860
 H        -3.214472        -1.547575         0.213049
 H        -1.488942        -0.785667         2.611660
