19
Iteration:    10charge 0 multiplicity 1
 O         0.437914        -0.058647         0.490373
 C        -0.792441         0.303551         0.930171
 C        -1.984208         0.712977        -0.016651
 C        -2.417693         0.884429         1.455591
 C        -1.080091         1.601132         1.812603
 C        -3.825544         0.854572         1.893665
 O        -4.190086        -0.525299         1.600402
 C        -3.045640        -1.392825         1.425416
 C        -1.919661        -0.517397         1.743973
 H         0.901170        -0.372649         1.295733
 H        -2.094202         1.589193        -0.622725
 H        -2.580337        -0.005446        -0.395434
 H        -0.910226         2.560193         1.381115
 H        -0.666259         1.346338         2.851689
 H        -3.967452         1.033911         2.885896
 H        -4.512478         1.496480         1.423018
 H        -3.091840        -2.171072         2.120503
 H        -3.106665        -1.714759         0.413365
 H        -1.816638        -0.486681         2.851022
