19
Iteration:  1526
 O         0.537567        -0.086108         0.506766
 C        -0.788909         0.246359         0.942154
 C        -1.885002         0.905023         0.015903
 C        -2.436324         0.930861         1.499211
 C        -0.957219         1.483060         1.956175
 C        -3.884120         0.784733         1.983943
 O        -4.293019        -0.543827         1.521671
 C        -3.174702        -1.356679         1.307568
 C        -1.962766        -0.561139         1.734721
 H         0.668443         0.505158        -0.189492
 H        -1.629053         1.873699        -0.420462
 H        -2.372548         0.122848        -0.643486
 H        -0.596533         2.425592         1.403638
 H        -0.764212         1.539541         2.955324
 H        -3.815907         0.815366         3.146905
 H        -4.736812         1.371560         1.677757
 H        -3.273655        -2.225217         1.911052
 H        -3.134471        -1.644149         0.205336
 H        -1.854920        -0.609417         2.824616
