19
Iteration:  3000charge 0 multiplicity 1
 O         0.320893        -0.229167         0.482843
 C        -0.851134         0.309448         0.869834
 C        -1.999399         0.766712         0.041727
 C        -2.436297         0.881060         1.478990
 C        -1.088416         1.683135         1.808009
 C        -3.864941         0.725008         1.864051
 O        -4.166356        -0.523016         1.456472
 C        -2.935134        -1.354060         1.588360
 C        -1.818862        -0.431559         1.810768
 H         1.126912         0.330460         0.374091
 H        -2.066052         1.704241        -0.462120
 H        -2.407494        -0.200965        -0.511689
 H        -1.210341         2.573623         1.278045
 H        -0.822532         1.943097         2.867269
 H        -3.864953         0.894157         2.958662
 H        -4.534199         1.461540         1.316186
 H        -2.979029        -1.854244         2.600474
 H        -3.029607        -2.018825         0.779197
 H        -1.423940        -0.475571         2.822824
