19
Iteration:  1504
 O         0.432146        -0.133673         0.476736
 C        -0.796746         0.308105         0.889992
 C        -1.901380         0.893108         0.073888
 C        -2.443384         0.883591         1.596501
 C        -1.086526         1.440441         1.983706
 C        -3.891941         0.822948         1.949626
 O        -4.279151        -0.430514         1.367776
 C        -3.018252        -1.424768         1.374806
 C        -1.835142        -0.539825         1.801251
 H         0.449672        -0.122703        -0.598441
 H        -1.712620         1.911052        -0.265779
 H        -2.373307         0.194614        -0.685160
 H        -1.018311         2.536084         1.653680
 H        -0.828091         1.377642         2.972955
 H        -3.869479         0.769929         3.078063
 H        -4.421204         1.717114         1.670133
 H        -3.236243        -2.162412         2.104130
 H        -3.025657        -1.824567         0.326767
 H        -1.399522        -0.686096         2.792510
