19
Iteration:  1663
 O         0.504121        -0.120708         0.535440
 C        -0.743218         0.290462         0.953871
 C        -1.935706         0.828579        -0.009268
 C        -2.458480         0.905226         1.490244
 C        -0.988815         1.450081         1.948907
 C        -3.896232         0.890641         1.942454
 O        -4.350106        -0.642510         1.616508
 C        -3.148286        -1.275715         1.266746
 C        -1.814175        -0.474594         1.729073
 H         0.646627         0.336298        -0.231043
 H        -1.870588         1.851193        -0.371223
 H        -2.354488         0.034961        -0.672837
 H        -0.821341         2.450045         1.587713
 H        -0.761531         1.217846         3.106477
 H        -4.027447         1.125647         2.991593
 H        -4.558551         1.541648         1.316616
 H        -3.093599        -2.349605         1.659317
 H        -3.040765        -1.332850         0.194985
 H        -1.431749        -0.758807         2.730968
