19
Iteration:  1387charge 0 multiplicity 1
 O         0.488193        -0.092592         0.481545
 C        -0.799458         0.228287         0.962829
 C        -1.896331         0.961425         0.044704
 C        -2.442840         0.928068         1.542905
 C        -0.971281         1.403568         1.926666
 C        -3.882070         0.876595         1.995344
 O        -4.285737        -0.586624         1.588308
 C        -3.153703        -1.364179         1.153183
 C        -1.945074        -0.562847         1.703439
 H         1.232340         0.380915         1.104785
 H        -1.508193         1.908813        -0.264750
 H        -2.441474         0.361010        -0.713004
 H        -0.729252         2.416005         1.419548
 H        -0.615686         1.420961         2.973175
 H        -4.160282         0.895717         3.094276
 H        -4.516642         1.606051         1.409644
 H        -3.182831        -2.402352         1.655223
 H        -3.131380        -1.487619         0.075387
 H        -1.767678        -0.603412         2.777466
