19
Iteration:  1581charge 0 multiplicity 1
 O         0.403376        -0.279278         0.543292
 C        -0.821974         0.286285         0.974341
 C        -1.877576         1.013965         0.084839
 C        -2.470194         0.994656         1.463603
 C        -1.092530         1.530911         1.900907
 C        -3.927905         0.821208         1.826289
 O        -4.176778        -0.636200         1.859924
 C        -3.047564        -1.347442         1.129755
 C        -1.864308        -0.546457         1.620139
 H         1.056604         0.312866         0.621090
 H        -1.499681         1.968909        -0.320978
 H        -2.474047         0.507751        -0.708631
 H        -0.640294         2.498423         1.602407
 H        -0.887896         1.419537         2.880107
 H        -4.086491         1.422157         2.788847
 H        -4.592705         1.190120         1.057994
 H        -3.040660        -2.352788         1.538899
 H        -3.275778        -1.359326         0.020144
 H        -1.628784        -0.724126         2.683021
