19
Iteration:   492charge 0 multiplicity 1
 O         0.555111        -0.021596         0.555573
 C        -0.801239         0.238628         0.920717
 C        -1.897493         0.817953        -0.004535
 C        -2.432507         0.924707         1.411914
 C        -1.065156         1.435940         1.940290
 C        -3.899720         0.844631         1.896323
 O        -4.333426        -0.561430         1.642439
 C        -3.085739        -1.296679         1.335040
 C        -1.877921        -0.511183         1.742260
 H         0.456718        -0.415713        -0.227461
 H        -1.591393         1.672246        -0.618862
 H        -2.410772         0.069167        -0.725904
 H        -0.732887         2.471783         1.787233
 H        -0.846441         1.236493         2.953806
 H        -3.872077         1.021498         3.008345
 H        -4.648356         1.556703         1.508612
 H        -3.084232        -2.230786         1.865093
 H        -3.146512        -1.452940         0.206071
 H        -1.619551        -0.757594         2.777921
