19
Iteration:  4950charge 0 multiplicity 1
 O         0.391653        -0.393212         0.643998
 C        -0.835045         0.267596         0.777964
 C        -2.013731         0.850195        -0.079404
 C        -2.514348         0.963354         1.464799
 C        -1.162559         1.714717         1.778791
 C        -3.943741         0.837927         2.017186
 O        -4.166338        -0.619957         1.588382
 C        -2.867367        -1.339731         1.415631
 C        -1.772274        -0.407936         1.798037
 H         1.207727         0.294598         0.460365
 H        -1.935127         1.935563        -0.418753
 H        -2.506276         0.101218        -0.716874
 H        -1.058023         2.554047         1.117216
 H        -0.659411         1.890294         2.737541
 H        -4.263919         0.978118         3.050690
 H        -4.616235         1.497174         1.424718
 H        -2.979747        -2.278439         1.986555
 H        -2.693844        -1.571052         0.305254
 H        -1.460917        -0.552092         2.864867
