19
Iteration:   857
 O         0.371577        -0.144023         0.373737
 C        -0.839837         0.325074         0.912017
 C        -1.917289         0.889148         0.160584
 C        -2.444587         0.969825         1.660411
 C        -0.982727         1.472172         1.991761
 C        -3.972970         0.796751         1.905298
 O        -4.262611        -0.534855         1.311403
 C        -2.989014        -1.374093         1.399357
 C        -1.823536        -0.404292         1.775044
 H         0.726097        -1.188211         0.532296
 H        -1.691613         1.733986        -0.468835
 H        -2.598766         0.237298        -0.469665
 H        -0.575938         2.382761         1.549017
 H        -0.528088         1.180715         3.039326
 H        -4.170522         0.857236         2.969759
 H        -4.473520         1.624121         1.430555
 H        -3.051933        -2.164802         2.188662
 H        -2.890374        -1.854351         0.445826
 H        -1.521846        -0.744925         2.756584
