19
Iteration:  1649charge 0 multiplicity 1
 O         0.480458        -0.155912         0.544194
 C        -0.795344         0.337296         0.904314
 C        -1.908883         0.882288         0.077764
 C        -2.406630         0.886419         1.547610
 C        -1.101301         1.538821         1.953823
 C        -3.891617         0.810691         1.827125
 O        -4.245990        -0.503624         1.732167
 C        -3.082568        -1.366928         1.191533
 C        -1.874350        -0.615756         1.695069
 H         0.825853         0.310278        -0.366139
 H        -1.672897         1.845366        -0.429215
 H        -2.431796         0.201529        -0.564457
 H        -0.841459         2.503400         1.631266
 H        -0.756138         1.426729         2.935866
 H        -4.116146         1.150500         2.882307
 H        -4.465055         1.440535         1.135933
 H        -3.305570        -2.354638         1.734022
 H        -3.229408        -1.466514         0.115338
 H        -1.694856        -0.896270         2.749772
