19
Iteration:  2622
 O         0.393997        -0.155983         0.412248
 C        -0.867716         0.332268         0.954885
 C        -1.989831         0.863516         0.036655
 C        -2.401817         0.891184         1.500683
 C        -1.077099         1.542474         1.872444
 C        -3.852647         0.798389         1.906034
 O        -4.194157        -0.521864         1.468933
 C        -3.045346        -1.366365         1.437427
 C        -1.864997        -0.530677         1.825379
 H         0.977707         0.359788         0.981252
 H        -1.454937         1.699468        -0.544649
 H        -2.536103         0.059912        -0.602636
 H        -0.739029         2.488602         1.440999
 H        -0.863104         1.425150         3.052646
 H        -3.820436         0.862127         3.037127
 H        -4.572626         1.551930         1.576319
 H        -3.229766        -2.321203         1.890326
 H        -2.876744        -1.791969         0.371049
 H        -1.560909        -0.572875         2.888085
