19
Iteration:  4968
 O         0.376326        -0.421923         0.647451
 C        -0.808253         0.364172         0.893048
 C        -2.051790         0.888454        -0.074070
 C        -2.488386         1.044284         1.395077
 C        -1.138716         1.710479         1.797600
 C        -3.803617         0.708942         1.899870
 O        -4.157629        -0.613604         1.582948
 C        -2.943676        -1.398482         1.479001
 C        -1.852954        -0.327754         1.713803
 H         1.094808         0.200492         0.085713
 H        -1.771624         1.791648        -0.611022
 H        -2.706275         0.150570        -0.477561
 H        -0.869496         2.776062         1.512938
 H        -1.003360         1.430334         2.844372
 H        -3.712557         0.797513         3.060649
 H        -4.769254         1.188233         1.660628
 H        -2.822071        -2.074422         2.309315
 H        -3.014122        -1.903687         0.532528
 H        -1.545036        -0.391363         2.743801
