19
Iteration:  4640
 O         0.268455        -0.282719         0.385189
 C        -0.846701         0.315709         0.935189
 C        -1.885454         0.814726        -0.033467
 C        -2.478308         0.968616         1.460087
 C        -1.126703         1.693681         1.906400
 C        -3.973603         0.835115         1.696047
 O        -4.100424        -0.635085         1.778712
 C        -2.905705        -1.361326         1.422545
 C        -1.769907        -0.400635         1.872124
 H         0.700594        -0.685877         1.051861
 H        -1.729457         1.747763        -0.583349
 H        -2.502566         0.064736        -0.649047
 H        -0.931892         2.677705         1.531398
 H        -0.769513         1.564015         2.930710
 H        -4.271263         1.323134         2.614691
 H        -4.478998         1.172508         0.863281
 H        -3.146795        -2.343396         1.837705
 H        -2.870195        -1.576800         0.303120
 H        -1.518329        -0.366978         2.974370
