19
Iteration:   192charge 0 multiplicity 1
 O         0.507915        -0.022696         0.554745
 C        -0.783495         0.358731         0.866153
 C        -1.885674         0.684770        -0.069920
 C        -2.451659         0.920908         1.505791
 C        -0.957581         1.556439         1.707210
 C        -3.931951         0.763400         2.022047
 O        -4.288724        -0.538554         1.600173
 C        -3.184050        -1.350949         1.427820
 C        -1.859525        -0.481864         1.745189
 H         0.857004        -0.334154         1.312582
 H        -1.812625         1.639778        -0.843623
 H        -2.384137        -0.160545        -0.601453
 H        -0.896217         2.412118         1.114008
 H        -0.563470         1.597083         2.781006
 H        -3.974218         0.886243         3.057613
 H        -4.675611         1.456479         1.596627
 H        -3.300049        -2.182924         2.183154
 H        -3.174179        -1.613902         0.324685
 H        -1.601996        -0.844445         2.743748
