19
Iteration:  2512
 O         0.339313        -0.281146         0.421536
 C        -0.784722         0.334693         0.949029
 C        -1.802709         0.988719         0.085930
 C        -2.478394         0.950526         1.463955
 C        -1.101263         1.502263         1.970533
 C        -3.959957         0.842679         1.814119
 O        -4.189353        -0.639966         1.772649
 C        -3.014796        -1.355406         1.241519
 C        -1.848086        -0.458693         1.707165
 H         1.271854         0.114174         0.736260
 H        -1.800102         2.033796        -0.412379
 H        -2.213854         0.373900        -0.756164
 H        -0.992732         2.541787         1.681834
 H        -0.678907         1.343968         3.009711
 H        -4.403533         1.266135         2.742514
 H        -4.616563         1.177768         0.998595
 H        -3.066068        -2.277512         1.815045
 H        -3.126889        -1.670420         0.137814
 H        -1.562504        -0.546144         2.758680
