19
Iteration:  2674
 O         0.347184        -0.192792         0.470177
 C        -0.829097         0.329645         0.961680
 C        -2.021600         0.844193         0.098943
 C        -2.400437         0.973332         1.549055
 C        -1.069529         1.551613         1.873296
 C        -3.899109         0.754762         1.877917
 O        -4.100120        -0.561805         1.404340
 C        -2.967666        -1.348871         1.462504
 C        -1.846040        -0.411327         1.808737
 H         0.022778        -0.941151        -0.248479
 H        -1.910642         1.868584        -0.159096
 H        -2.505186         0.322172        -0.706702
 H        -0.945818         2.561283         1.488647
 H        -0.643715         1.529612         2.930521
 H        -4.158448         0.940119         2.941032
 H        -4.572976         1.305739         1.212932
 H        -3.037631        -2.179048         2.196345
 H        -2.828313        -1.808447         0.462092
 H        -1.631754        -0.556721         2.903780
