19
Iteration:  4408charge 0 multiplicity 1
 O         0.517110        -0.103031         0.511456
 C        -0.797464         0.355431         0.858849
 C        -2.061364         0.577126         0.026617
 C        -2.463497         0.875550         1.487935
 C        -1.062058         1.622689         1.679236
 C        -3.914383         0.813388         2.010211
 O        -4.262312        -0.490344         1.483186
 C        -3.051448        -1.362803         1.539315
 C        -1.786171        -0.457934         1.800661
 H         0.990590         0.586973         0.957287
 H        -2.036105         1.227148        -0.871491
 H        -2.446893        -0.369768        -0.178627
 H        -0.871703         2.529038         1.096176
 H        -0.682830         1.762194         2.662004
 H        -3.925275         0.873399         3.143177
 H        -4.549001         1.471141         1.508404
 H        -3.234254        -2.212709         2.170915
 H        -3.012917        -1.719905         0.520782
 H        -1.339834        -0.448335         2.838119
