19
Iteration:  1445
 O         0.355959        -0.142245         0.352823
 C        -0.853028         0.229647         1.015046
 C        -1.932278         0.949306         0.148355
 C        -2.491927         1.019398         1.626616
 C        -0.920362         1.480060         1.906197
 C        -3.940538         0.715964         1.958413
 O        -4.174751        -0.500301         1.281992
 C        -3.051814        -1.331785         1.335171
 C        -1.806584        -0.481177         1.870298
 H         0.586221        -1.009860         0.535962
 H        -1.456306         1.916246        -0.183445
 H        -2.452413         0.590924        -0.716407
 H        -0.737687         2.403612         1.555239
 H        -0.773419         1.444020         3.028003
 H        -4.202186         0.477054         3.054451
 H        -4.690517         1.509392         1.537271
 H        -3.305634        -2.149858         2.053037
 H        -3.011966        -1.772807         0.315703
 H        -1.562712        -0.811383         2.929717
