19
Iteration:    85charge 0 multiplicity 1
 O         0.372563        -0.215306         0.455637
 C        -0.811251         0.290273         0.945165
 C        -1.932101         0.826955        -0.067731
 C        -2.468484         0.953813         1.414911
 C        -1.141658         1.532544         1.945634
 C        -3.948134         0.859249         1.732084
 O        -4.161549        -0.543907         1.824901
 C        -2.932236        -1.330987         1.377538
 C        -1.837530        -0.493948         1.729107
 H         1.005663        -0.126755         1.080701
 H        -1.640879         1.688393        -0.700274
 H        -2.417951         0.113031        -0.639794
 H        -0.924175         2.509777         1.589600
 H        -0.756439         1.479650         3.025720
 H        -4.233450         1.342432         2.767384
 H        -4.508504         1.253361         0.882520
 H        -2.963409        -2.190900         2.011349
 H        -3.068685        -1.716032         0.351492
 H        -1.679838        -0.576819         2.825908
