19
Iteration:   653charge 0 multiplicity 1
 O         0.428805        -0.148760         0.549299
 C        -0.760318         0.343307         0.935485
 C        -1.778842         0.911907        -0.036390
 C        -2.408457         0.906125         1.476808
 C        -1.088864         1.496158         1.930658
 C        -3.896765         0.829268         1.953578
 O        -4.313799        -0.530662         1.696672
 C        -3.070965        -1.421667         1.230757
 C        -1.938864        -0.545557         1.740810
 H         0.610962        -0.005889        -0.409083
 H        -1.430168         1.866508        -0.443327
 H        -1.960411         0.133242        -0.877841
 H        -0.924723         2.598750         1.818975
 H        -0.855283         1.361932         2.919053
 H        -3.973712         0.990397         2.968490
 H        -4.521111         1.594078         1.413931
 H        -3.482576        -2.389493         1.605783
 H        -3.023680        -1.457262         0.123745
 H        -1.632046        -0.772305         2.776608
