19
Iteration:  1008charge 0 multiplicity 1
 O         0.460402        -0.217997         0.442644
 C        -0.817598         0.266929         0.971734
 C        -1.742061         0.998154         0.012450
 C        -2.482632         0.906304         1.530696
 C        -1.110162         1.424204         1.985583
 C        -3.974201         0.892964         1.809202
 O        -4.242046        -0.581987         1.744777
 C        -3.066681        -1.324332         1.214195
 C        -1.919889        -0.523850         1.778455
 H         0.879104         0.463033        -0.211767
 H        -1.339047         1.967202        -0.373336
 H        -2.242866         0.328088        -0.778509
 H        -0.969677         2.414372         1.787481
 H        -0.697990         1.181122         3.034208
 H        -4.125210         1.100815         2.961466
 H        -4.662321         1.446478         1.189861
 H        -2.973238        -2.342079         1.536254
 H        -2.983642        -1.411312         0.030733
 H        -1.690876        -0.753898         2.807963
