19
Iteration:  4154
 O         0.444910        -0.057883         0.392825
 C        -0.876272         0.303871         0.857720
 C        -1.998335         0.707951        -0.026215
 C        -2.482093         0.970331         1.454885
 C        -1.013054         1.617999         1.797430
 C        -3.960485         0.788555         1.890009
 O        -4.231141        -0.636062         1.515587
 C        -2.961175        -1.355229         1.658241
 C        -1.807850        -0.372567         1.888263
 H         0.679040        -0.901435         0.685208
 H        -1.791296         1.643744        -0.553883
 H        -2.231033        -0.101321        -0.760778
 H        -0.934326         2.580849         1.324514
 H        -0.589076         1.382956         2.770917
 H        -4.062890         1.024819         2.955133
 H        -4.590120         1.335499         1.174651
 H        -2.955415        -2.084775         2.503086
 H        -2.841552        -1.864850         0.732486
 H        -1.582626        -0.549603         2.983931
