19
Iteration:  3760
 O         0.500509        -0.144678         0.425661
 C        -0.836188         0.354369         0.951936
 C        -1.863669         0.853501        -0.044321
 C        -2.477511         0.912826         1.345969
 C        -1.195409         1.604564         1.914536
 C        -3.926074         0.816240         1.688397
 O        -4.117400        -0.579892         1.972784
 C        -3.055990        -1.391870         1.436652
 C        -1.846767        -0.476876         1.723846
 H         0.327457        -0.932417        -0.068649
 H        -1.644473         1.714887        -0.688653
 H        -2.199924         0.071792        -0.805492
 H        -1.051256         2.706923         1.848137
 H        -1.041134         1.404363         2.977174
 H        -4.188192         1.355188         2.657082
 H        -4.667690         1.139444         0.906980
 H        -3.109505        -2.364800         2.026603
 H        -3.223796        -1.694785         0.416014
 H        -1.569242        -0.589682         2.765153
