19
Iteration:  2169charge 0 multiplicity 1
 O         0.420975        -0.197590         0.385936
 C        -0.776449         0.325518         0.951533
 C        -1.830515         0.970042        -0.012177
 C        -2.470295         0.917350         1.475358
 C        -1.173633         1.505823         2.089239
 C        -3.935104         0.847751         1.840290
 O        -4.197856        -0.544313         1.793607
 C        -3.072268        -1.351645         1.203292
 C        -1.813120        -0.581193         1.655239
 H         1.064166        -0.667007         1.099565
 H        -1.700939         1.965257        -0.374759
 H        -2.372176         0.315049        -0.751741
 H        -0.909092         2.627224         1.851786
 H        -0.810985         1.262147         3.075920
 H        -4.283725         1.183424         2.805600
 H        -4.501754         1.416819         1.063404
 H        -3.022606        -2.380352         1.652505
 H        -3.230825        -1.496884         0.165864
 H        -1.611978        -0.673644         2.707401
