19
Iteration:  3018charge 0 multiplicity 1
 O         0.483015        -0.197953         0.492724
 C        -0.833927         0.350470         0.858678
 C        -2.084366         0.701576        -0.067571
 C        -2.490679         0.933406         1.484859
 C        -1.144553         1.594245         1.758908
 C        -3.881635         0.888797         1.942726
 O        -4.220695        -0.554600         1.471018
 C        -2.977240        -1.414038         1.603252
 C        -1.755838        -0.439482         1.854389
 H         1.080210         0.570625         0.607218
 H        -1.920723         1.578591        -0.689552
 H        -2.644103        -0.073886        -0.503072
 H        -0.770465         2.682060         1.511106
 H        -0.776005         1.289122         2.744323
 H        -4.045666         1.002429         3.028881
 H        -4.568531         1.487550         1.362164
 H        -3.083371        -2.112587         2.420963
 H        -2.852722        -1.956601         0.630188
 H        -1.266682        -0.523711         2.838726
