19
Iteration:  1758
 O         0.261244        -0.239308         0.394759
 C        -0.884608         0.290761         0.986582
 C        -1.958510         0.900011         0.122743
 C        -2.450757         0.982089         1.605414
 C        -0.915867         1.471909         1.927662
 C        -3.878817         0.796206         1.934003
 O        -4.218456        -0.515592         1.277733
 C        -2.910767        -1.461075         1.383815
 C        -1.891804        -0.404322         1.916642
 H         0.703598         0.685389         0.009241
 H        -1.628798         1.829600        -0.366507
 H        -2.516105         0.252836        -0.558901
 H        -0.797645         2.518909         1.435892
 H        -0.457701         1.333125         2.888147
 H        -3.994789         0.796450         3.050293
 H        -4.601050         1.481507         1.466618
 H        -3.061762        -2.332771         2.050510
 H        -2.773027        -1.723255         0.364136
 H        -1.538113        -0.391499         2.972252
