19
Iteration:   264charge 0 multiplicity 1
 O         0.409277        -0.357993         0.406195
 C        -0.800055         0.331281         0.901738
 C        -2.016531         0.984713         0.134795
 C        -2.452955         0.996687         1.568641
 C        -0.953327         1.540254         1.850380
 C        -4.013096         0.808173         1.764109
 O        -4.203071        -0.658292         1.469278
 C        -2.970897        -1.380846         1.528529
 C        -1.860397        -0.337658         1.852618
 H         1.151946         0.146109         0.400118
 H        -1.999570         1.860800        -0.317004
 H        -2.604838         0.270116        -0.491311
 H        -0.685355         2.509430         1.270351
 H        -0.599286         1.441467         2.856634
 H        -4.447490         1.020745         2.860173
 H        -4.649860         1.354288         1.049831
 H        -3.021509        -2.156484         2.287001
 H        -2.790551        -1.750183         0.560593
 H        -1.514105        -0.470450         2.902741
