19
Iteration:  2588
 O         0.572500        -0.127505         0.601564
 C        -0.724507         0.364709         0.897144
 C        -1.991316         0.818366        -0.008197
 C        -2.476418         0.874339         1.488808
 C        -1.067270         1.491999         1.865068
 C        -3.905422         0.816636         1.976701
 O        -4.257154        -0.533708         1.602668
 C        -3.141418        -1.331948         1.384168
 C        -1.871446        -0.529435         1.621190
 H         0.812031         0.242804        -0.181102
 H        -1.616036         1.685290        -0.668246
 H        -2.476329         0.041758        -0.693525
 H        -0.909500         2.553675         1.521324
 H        -0.791830         1.320212         3.025680
 H        -3.968680         0.834935         3.102298
 H        -4.701259         1.406464         1.518435
 H        -3.152105        -2.180351         2.052312
 H        -3.183592        -1.493724         0.263330
 H        -1.588563        -0.602883         2.699691
