19
Iteration:  4166charge 0 multiplicity 1
 O         0.408790        -0.160165         0.286207
 C        -0.783238         0.325274         0.951608
 C        -2.005787         0.784537        -0.007606
 C        -2.492114         0.955295         1.486733
 C        -1.045884         1.602484         1.802102
 C        -3.987800         0.710808         1.802480
 O        -4.238012        -0.627567         1.484142
 C        -2.883666        -1.305250         1.651601
 C        -1.828178        -0.347424         1.960055
 H         0.791551        -0.780721         0.921039
 H        -1.821228         1.637697        -0.628194
 H        -2.688786         0.000477        -0.487429
 H        -0.724355         2.540015         1.423041
 H        -0.704577         1.608568         2.834331
 H        -4.132143         0.902967         2.872298
 H        -4.738716         1.345164         1.354881
 H        -3.104208        -2.002483         2.458536
 H        -2.641087        -1.868214         0.799810
 H        -1.318398        -0.201163         2.949405
