19
Iteration:  1226charge 0 multiplicity 1
 O         0.478810        -0.100181         0.420605
 C        -0.764161         0.329722         0.867857
 C        -1.894884         0.938148         0.128781
 C        -2.459331         0.895174         1.516907
 C        -0.904093         1.458335         1.976066
 C        -3.917913         0.740882         1.970070
 O        -4.306307        -0.542163         1.416500
 C        -3.144679        -1.340408         1.286439
 C        -1.956269        -0.450161         1.773826
 H         0.988648        -0.651892         1.201728
 H        -1.681959         1.923896        -0.298005
 H        -2.454364         0.228583        -0.546651
 H        -0.637060         2.459819         1.637205
 H        -0.617140         1.203645         3.129591
 H        -3.830954         0.773540         3.025058
 H        -4.694619         1.414194         1.665487
 H        -3.185610        -2.204791         2.014929
 H        -3.048121        -1.792693         0.257715
 H        -1.773421        -0.644320         2.864683
