19
Iteration:  2161charge 0 multiplicity 1
 O         0.470834        -0.160701         0.380642
 C        -0.729457         0.332613         0.912527
 C        -1.904309         0.915328         0.031169
 C        -2.447211         0.890079         1.520963
 C        -1.147945         1.487777         2.071147
 C        -3.897254         0.877010         1.843956
 O        -4.251601        -0.531332         1.786070
 C        -3.040460        -1.380672         1.207311
 C        -1.882347        -0.528188         1.632276
 H         1.021785        -0.610359         1.197749
 H        -1.629827         1.842972        -0.473524
 H        -2.275209         0.161389        -0.745378
 H        -0.937904         2.512141         1.801872
 H        -1.289379         1.219575         3.141768
 H        -4.174081         1.236516         2.846425
 H        -4.487158         1.485308         1.161741
 H        -3.057016        -2.350951         1.609465
 H        -3.166749        -1.470728         0.118729
 H        -1.589643        -0.792377         2.642870
