19
Iteration:  2733charge 0 multiplicity 1
 O         0.490260        -0.113320         0.479711
 C        -0.791133         0.306351         0.914376
 C        -1.976538         0.748629        -0.033136
 C        -2.470719         0.959206         1.517625
 C        -1.120097         1.550425         1.838127
 C        -3.853297         0.886686         1.977009
 O        -4.252422        -0.508963         1.552956
 C        -3.008490        -1.450837         1.389741
 C        -1.860149        -0.555747         1.760181
 H         0.986949         0.358649         1.092821
 H        -1.928256         1.805889        -0.488435
 H        -2.436932        -0.007514        -0.738411
 H        -0.951363         2.466305         1.182302
 H        -0.847067         1.536109         2.977057
 H        -3.955693         1.080504         3.089106
 H        -4.605047         1.515020         1.463856
 H        -3.167053        -2.359055         2.042227
 H        -3.045259        -1.791928         0.289793
 H        -1.556117        -0.699342         2.796372
