19
Iteration:  2256
 O         0.510950        -0.015761         0.411516
 C        -0.788137         0.261907         0.965758
 C        -1.836587         0.859523         0.055530
 C        -2.468080         0.901024         1.436403
 C        -1.086358         1.463320         1.942977
 C        -3.861478         0.865557         1.942309
 O        -4.245022        -0.536769         1.656350
 C        -3.145754        -1.374325         1.235948
 C        -1.921838        -0.575943         1.734430
 H         0.950995        -0.472245         1.079462
 H        -1.598437         1.806435        -0.334529
 H        -2.351326         0.197162        -0.671988
 H        -0.888081         2.486032         1.478227
 H        -0.938336         1.341406         2.930851
 H        -3.832917         0.931423         3.023658
 H        -4.577593         1.658654         1.660140
 H        -3.345288        -2.386545         1.621710
 H        -3.335868        -1.464788         0.162793
 H        -1.703526        -0.780001         2.800222
