19
Iteration:  1382
 O         0.504419        -0.075330         0.490755
 C        -0.776763         0.233793         0.971044
 C        -1.919171         0.966582         0.032339
 C        -2.387123         0.934933         1.553205
 C        -0.937601         1.396633         1.904586
 C        -3.888825         0.873525         1.993656
 O        -4.325067        -0.627219         1.611961
 C        -3.185529        -1.362941         1.134109
 C        -1.970254        -0.528599         1.734078
 H         1.166130         0.367900         0.968392
 H        -1.399310         1.894066        -0.352321
 H        -2.348449         0.402791        -0.793193
 H        -0.702998         2.390399         1.481172
 H        -0.681182         1.378870         2.969654
 H        -4.126879         0.991464         3.024330
 H        -4.533137         1.488023         1.403979
 H        -3.189937        -2.349186         1.519623
 H        -3.106703        -1.570328         0.021090
 H        -1.835635        -0.640050         2.839497
