19
Iteration:  4985
 O         0.313366        -0.264437         0.603882
 C        -0.834862         0.381420         0.893803
 C        -1.906100         0.834840        -0.094155
 C        -2.501196         1.011708         1.383619
 C        -1.075645         1.576152         1.840808
 C        -3.919167         0.802687         1.981860
 O        -4.173265        -0.624675         1.539277
 C        -2.918412        -1.415765         1.526997
 C        -1.870074        -0.375411         1.764437
 H         0.695567         0.112495        -0.310123
 H        -1.810573         1.718426        -0.754785
 H        -2.110885        -0.000501        -0.855169
 H        -0.825934         2.508814         1.366732
 H        -0.780181         1.486163         2.896581
 H        -3.739777         0.893090         3.032465
 H        -4.678367         1.443328         1.543683
 H        -3.001440        -2.126616         2.399095
 H        -2.874935        -2.032745         0.593332
 H        -1.482909        -0.282251         2.834055
