19
Iteration:  1346
 O         0.473373        -0.140869         0.472910
 C        -0.737446         0.285640         0.966917
 C        -1.874961         0.977855         0.016230
 C        -2.442029         0.856594         1.507586
 C        -1.156641         1.383282         2.036754
 C        -3.941959         0.904283         1.876085
 O        -4.178414        -0.539164         1.805904
 C        -3.130684        -1.321512         1.117877
 C        -1.856979        -0.572583         1.588068
 H         1.141169         0.300912         0.981085
 H        -1.576926         1.983761        -0.387433
 H        -2.226737         0.282810        -0.758346
 H        -0.943422         2.334918         1.820998
 H        -0.991001         1.069918         3.089476
 H        -4.212517         1.377821         2.833079
 H        -4.542264         1.333320         1.008314
 H        -3.363331        -2.260013         1.629690
 H        -3.308090        -1.313346         0.035696
 H        -1.671195        -1.109187         2.578491
