19
Iteration:  3194
 O         0.583690        -0.137516         0.569830
 C        -0.752492         0.283804         0.838720
 C        -1.991965         0.724736        -0.035170
 C        -2.446259         0.992029         1.419816
 C        -0.980624         1.612533         1.635886
 C        -3.919534         0.775593         1.868015
 O        -4.246905        -0.643244         1.746570
 C        -3.130173        -1.364734         1.540484
 C        -1.954585        -0.437059         1.809811
 H         0.947258         0.837769         0.239752
 H        -1.787835         1.688347        -0.556102
 H        -2.743440         0.140751        -0.780114
 H        -0.806824         2.662504         1.302890
 H        -0.582575         1.490954         2.719967
 H        -4.142092         1.005341         2.900481
 H        -4.599777         1.386927         1.279553
 H        -3.095479        -2.347078         2.120747
 H        -3.315302        -1.748026         0.453960
 H        -1.815901        -0.391636         2.934068
