19
Iteration:  4031charge 0 multiplicity 1
 O         0.406917        -0.246356         0.464574
 C        -0.854473         0.343220         0.904695
 C        -2.001717         0.856695        -0.007958
 C        -2.459034         1.056254         1.381696
 C        -1.048076         1.576372         1.793324
 C        -3.950638         0.744326         1.572929
 O        -4.141552        -0.646560         1.999287
 C        -2.971651        -1.417235         1.535023
 C        -1.881030        -0.368390         1.782756
 H         1.172589         0.335497         0.438021
 H        -1.745014         1.740300        -0.654911
 H        -2.476109         0.040134        -0.511655
 H        -0.853241         2.573591         1.278258
 H        -0.592922         1.539035         2.797960
 H        -4.479145         1.358983         2.286937
 H        -4.497800         1.023804         0.624645
 H        -2.806408        -2.396776         1.991639
 H        -3.054010        -1.744831         0.498351
 H        -1.583614        -0.398534         2.896776
