19
Iteration:  3439
 O         0.422860        -0.141924         0.421577
 C        -0.810924         0.344705         0.908109
 C        -1.928764         0.860586        -0.031890
 C        -2.475282         0.954465         1.390160
 C        -1.092782         1.549974         1.860473
 C        -3.960903         0.756966         1.661246
 O        -4.191845        -0.596431         1.922510
 C        -3.009732        -1.327066         1.472285
 C        -1.799413        -0.432989         1.802626
 H         0.481332        -1.175232         0.735491
 H        -1.729854         1.829889        -0.544744
 H        -2.381473         0.215274        -0.703660
 H        -0.648245         2.538695         1.595946
 H        -0.863759         1.304831         2.885551
 H        -4.318674         1.336359         2.525800
 H        -4.593320         0.968600         0.754147
 H        -2.888980        -2.332734         1.924810
 H        -3.027624        -1.445388         0.376820
 H        -1.458210        -0.614374         2.798969
