19
Iteration:   918
 O         0.414197        -0.116330         0.381246
 C        -0.754988         0.328266         1.022339
 C        -1.851402         0.797277         0.007605
 C        -2.431204         0.945232         1.510998
 C        -0.995978         1.497021         1.988027
 C        -3.952166         0.762969         1.998087
 O        -4.265659        -0.506526         1.471680
 C        -3.137328        -1.326253         1.301058
 C        -1.909750        -0.460573         1.730686
 H         1.026155        -0.073047         1.183196
 H        -1.659656         1.741053        -0.652535
 H        -2.222821         0.015592        -0.630186
 H        -0.430280         2.336543         1.669501
 H        -0.688932         1.210827         2.999415
 H        -3.857203         0.682727         3.164137
 H        -4.773791         1.471993         1.714034
 H        -3.174361        -2.312937         1.822932
 H        -3.321090        -1.656805         0.206822
 H        -1.553673        -0.684604         2.760311
