19
Iteration:  2902charge 0 multiplicity 1
 O         0.542783         0.000884         0.495223
 C        -0.783179         0.354662         0.889983
 C        -1.929925         0.745190        -0.070933
 C        -2.490050         0.920148         1.393708
 C        -1.037389         1.519223         1.792059
 C        -3.933191         0.817924         1.928928
 O        -4.258873        -0.540869         1.664806
 C        -3.081062        -1.424976         1.484127
 C        -1.902077        -0.459122         1.781287
 H         0.709584        -0.745865         1.013322
 H        -1.914688         1.524457        -0.837171
 H        -2.347583        -0.286239        -0.450056
 H        -0.778051         2.479908         1.485445
 H        -0.727932         1.348892         2.859073
 H        -3.835460         1.182004         2.970073
 H        -4.738349         1.389427         1.378829
 H        -3.234633        -2.403496         2.060135
 H        -3.039950        -1.640266         0.404992
 H        -1.419114        -0.588185         2.763736
