19
Iteration:  1490charge 0 multiplicity 1
 O         0.423087        -0.175682         0.441915
 C        -0.817889         0.301062         0.956339
 C        -2.047341         0.877087         0.115960
 C        -2.405627         0.902133         1.602246
 C        -1.083888         1.529825         2.080247
 C        -3.895623         0.820003         1.959504
 O        -4.177864        -0.440872         1.300131
 C        -3.013189        -1.315598         1.384106
 C        -1.772702        -0.560300         1.695106
 H         0.245470        -0.568089        -0.377495
 H        -1.984973         1.797184        -0.516601
 H        -2.632140         0.145025        -0.467908
 H        -0.681021         2.417226         1.731350
 H        -0.696261         1.209229         3.077934
 H        -4.263275         0.872561         3.069165
 H        -4.601870         1.433134         1.278686
 H        -3.139758        -1.995002         2.246552
 H        -2.980964        -1.909832         0.424891
 H        -1.414569        -0.892557         2.734305
