19
Iteration:  3127charge 0 multiplicity 1
 O         0.412726        -0.295569         0.581128
 C        -0.782077         0.295683         0.926297
 C        -1.889901         0.886977        -0.008852
 C        -2.488224         1.017757         1.398277
 C        -1.069607         1.634510         1.738083
 C        -4.035567         0.783722         1.717320
 O        -4.164417        -0.709082         2.018720
 C        -2.981280        -1.317232         1.381657
 C        -1.864311        -0.392471         1.698222
 H         0.788532        -0.041693        -0.193749
 H        -1.559058         1.886177        -0.415381
 H        -2.200389         0.292939        -0.884363
 H        -1.008127         2.638186         1.242954
 H        -0.805166         1.601211         2.799493
 H        -4.516906         1.334427         2.532722
 H        -4.610570         0.972549         0.822566
 H        -2.783684        -2.254342         1.880652
 H        -3.046023        -1.550328         0.266527
 H        -1.566713        -0.436881         2.764204
