19
Iteration:  4657
 O         0.391500        -0.413050         0.425555
 C        -0.768406         0.357900         0.840750
 C        -2.017532         0.875288         0.026690
 C        -2.461565         1.006059         1.476345
 C        -1.237758         1.702125         1.912012
 C        -3.861774         0.805105         1.755916
 O        -4.147347        -0.615684         1.715804
 C        -2.879527        -1.352684         1.465886
 C        -1.828341        -0.358751         1.722111
 H         0.629412        -0.875464         1.194265
 H        -1.958859         1.812521        -0.532685
 H        -2.437327         0.099915        -0.527676
 H        -1.005055         2.713452         1.462321
 H        -1.121234         1.638632         3.021867
 H        -4.283750         1.038997         2.779560
 H        -4.650551         1.343029         1.053215
 H        -2.705453        -2.076146         2.290672
 H        -2.879047        -1.731901         0.463849
 H        -1.498343        -0.641085         2.732795
