19
Iteration:  1078
 O         0.525799        -0.066330         0.535176
 C        -0.832443         0.255840         0.933366
 C        -1.889039         0.944449         0.025144
 C        -2.446258         0.923540         1.454156
 C        -1.065230         1.448828         1.994144
 C        -3.864053         0.826375         1.897040
 O        -4.293330        -0.577581         1.648205
 C        -3.105073        -1.270590         1.197681
 C        -1.887391        -0.573583         1.749152
 H         0.485408        -0.941849         0.458295
 H        -1.414049         1.897079        -0.205002
 H        -2.469000         0.479113        -0.764452
 H        -0.690248         2.393114         1.396085
 H        -0.507858         1.317707         2.841778
 H        -3.793208         0.843681         2.945768
 H        -4.736468         1.433014         1.575643
 H        -3.405881        -2.342509         1.496456
 H        -3.080377        -1.339175         0.101521
 H        -1.700954        -0.804745         2.817662
