19
Iteration:  4785
 O         0.350908        -0.290117         0.424086
 C        -0.826475         0.341353         0.849017
 C        -1.935437         0.864802        -0.000654
 C        -2.468505         0.951755         1.449020
 C        -1.052404         1.616421         1.873036
 C        -3.973930         0.765713         1.863864
 O        -4.248276        -0.606863         1.499952
 C        -2.882845        -1.340421         1.567537
 C        -1.856456        -0.370176         1.845748
 H         1.068426        -0.206091         0.993704
 H        -1.811749         1.931638        -0.501376
 H        -2.465765         0.124812        -0.616221
 H        -0.763515         2.640898         1.564188
 H        -0.612194         1.351034         2.831099
 H        -4.017827         0.800437         2.962696
 H        -4.757304         1.482977         1.488290
 H        -2.971122        -2.164650         2.292080
 H        -2.619132        -1.804665         0.534302
 H        -1.414867        -0.475925         2.885531
