19
Iteration:  3377charge 0 multiplicity 1
 O         0.460171        -0.164680         0.680988
 C        -0.834503         0.304451         0.770919
 C        -2.046823         0.714400        -0.111222
 C        -2.459687         0.886780         1.483586
 C        -1.153696         1.587246         1.724781
 C        -3.887315         0.903530         1.928046
 O        -4.191052        -0.564299         1.745703
 C        -2.964430        -1.361436         1.426372
 C        -1.818541        -0.467398         1.759558
 H         0.952984         0.355101        -0.099340
 H        -1.899301         1.670448        -0.561793
 H        -2.567308        -0.050412        -0.803571
 H        -0.954739         2.630811         1.500490
 H        -0.654576         1.304192         2.676568
 H        -3.943670         1.349726         2.920350
 H        -4.535243         1.481074         1.283114
 H        -2.942205        -2.324447         1.989878
 H        -3.165953        -1.658555         0.354188
 H        -1.284635        -0.623726         2.742874
