19
Iteration:  4121charge 0 multiplicity 1
 O         0.570843        -0.011811         0.644741
 C        -0.795976         0.284351         0.836083
 C        -2.098491         0.652079        -0.065160
 C        -2.480253         0.873130         1.368785
 C        -1.172438         1.658682         1.683083
 C        -3.799887         0.845482         1.920415
 O        -4.250560        -0.554858         1.712608
 C        -3.026576        -1.368348         1.503281
 C        -1.787451        -0.536822         1.790117
 H         0.632088        -0.599430        -0.119343
 H        -2.009880         1.660639        -0.531605
 H        -2.392693        -0.139736        -0.755842
 H        -1.096527         2.646459         1.193468
 H        -0.793025         1.814926         2.696326
 H        -3.963452         1.053588         2.949280
 H        -4.511735         1.526154         1.406742
 H        -3.015240        -2.255429         2.167775
 H        -3.268760        -1.774391         0.568523
 H        -1.434305        -0.480042         2.877945
