19
Iteration:  1193charge 0 multiplicity 1
 O         0.352528        -0.205841         0.364187
 C        -0.845875         0.257889         0.931097
 C        -1.970495         0.885826         0.176818
 C        -2.414705         0.895787         1.612595
 C        -1.095535         1.494298         1.986382
 C        -3.870444         0.798093         1.966538
 O        -4.132143        -0.420785         1.280922
 C        -3.071074        -1.315210         1.301879
 C        -1.824642        -0.539326         1.798101
 H         0.933869         0.159565         1.037740
 H        -1.745689         1.862800        -0.250706
 H        -2.628498         0.289141        -0.522207
 H        -0.825986         2.511138         1.719915
 H        -0.817087         1.331301         3.165940
 H        -4.033541         0.743499         3.028511
 H        -4.534039         1.538352         1.553648
 H        -3.180631        -2.108653         2.085093
 H        -2.883977        -1.899986         0.384163
 H        -1.366114        -0.842602         2.776978
