19
Iteration:  1990
 O         0.539485        -0.052638         0.436473
 C        -0.783234         0.285008         0.908928
 C        -1.888319         0.884184         0.044935
 C        -2.429755         0.976974         1.522094
 C        -1.061975         1.507685         1.871645
 C        -3.854110         0.772591         2.026088
 O        -4.347980        -0.533726         1.502022
 C        -3.109167        -1.421946         1.347531
 C        -1.910006        -0.514335         1.708171
 H         0.981631        -0.834508         1.038156
 H        -1.781174         1.877449        -0.413943
 H        -2.437367         0.360959        -0.741689
 H        -0.737651         2.445980         1.490323
 H        -0.724412         1.293007         2.976364
 H        -3.869742         0.843149         3.112081
 H        -4.502636         1.510857         1.544243
 H        -3.148683        -2.137598         2.223445
 H        -3.329520        -1.901897         0.362069
 H        -1.743451        -0.664499         2.830335
