19
Iteration:  1892
 O         0.428664        -0.249826         0.520857
 C        -0.817503         0.297799         0.944832
 C        -1.916673         1.050392         0.074788
 C        -2.446897         1.032572         1.471809
 C        -1.038960         1.450493         1.954342
 C        -3.961666         0.818945         1.734524
 O        -4.133812        -0.627528         1.807512
 C        -3.110195        -1.389660         1.240447
 C        -1.910916        -0.485920         1.682696
 H         1.044239         0.506760         0.060809
 H        -1.563284         2.061591        -0.310313
 H        -2.409007         0.392842        -0.730852
 H        -0.543981         2.349823         1.697714
 H        -0.666253         0.906893         2.951503
 H        -4.302105         1.057736         2.754913
 H        -4.640610         1.331903         0.966357
 H        -3.232752        -2.409413         1.732500
 H        -3.024074        -1.557725         0.202013
 H        -1.614645        -0.618164         2.792237
