19
Iteration:  4945
 O         0.380353        -0.346898         0.618390
 C        -0.827905         0.304049         0.836636
 C        -1.974767         0.809905        -0.045457
 C        -2.523273         0.910251         1.521648
 C        -1.150656         1.684100         1.703937
 C        -3.948089         0.863618         2.000736
 O        -4.184881        -0.592478         1.593854
 C        -2.852723        -1.341094         1.384052
 C        -1.775176        -0.426752         1.813258
 H         1.050648         0.225205         0.485053
 H        -1.857220         1.797475        -0.385323
 H        -2.580880         0.156296        -0.674259
 H        -0.990342         2.593396         1.042653
 H        -0.707321         1.758808         2.713276
 H        -4.305795         1.021036         3.067293
 H        -4.665147         1.366683         1.329237
 H        -2.901558        -2.302691         1.887898
 H        -2.775473        -1.467506         0.336425
 H        -1.431956        -0.492935         2.830812
