19
Iteration:    55
 O         0.575399        -0.025216         0.474234
 C        -0.710554         0.309140         0.907107
 C        -1.787164         0.767494        -0.134742
 C        -2.471796         0.856411         1.379784
 C        -1.099623         1.541519         1.776002
 C        -3.883159         0.811303         1.967268
 O        -4.359322        -0.560082         1.788812
 C        -3.156238        -1.401368         1.393072
 C        -1.990219        -0.489791         1.778547
 H         1.155188        -0.044822         1.300616
 H        -1.547466         1.677340        -0.636603
 H        -2.140435         0.053959        -0.851600
 H        -0.975884         2.488711         1.218093
 H        -0.741089         1.566206         2.814962
 H        -3.829810         1.069900         2.967942
 H        -4.596833         1.467698         1.523552
 H        -3.216515        -2.253116         2.032564
 H        -3.246113        -1.621730         0.347039
 H        -1.803067        -0.490725         2.870959
