19
Iteration:  1231charge 0 multiplicity 1
 O         0.513308        -0.113761         0.425931
 C        -0.746769         0.322608         0.865228
 C        -1.928668         0.918434         0.125275
 C        -2.482598         0.941687         1.535025
 C        -0.964224         1.454632         2.006078
 C        -3.890208         0.754003         1.957586
 O        -4.298731        -0.562235         1.441841
 C        -3.142887        -1.327794         1.286787
 C        -1.913749        -0.476978         1.748778
 H         0.866051        -0.645010         1.038112
 H        -1.672343         1.903728        -0.318364
 H        -2.341593         0.268401        -0.617052
 H        -0.552533         2.463424         1.654313
 H        -0.826056         1.180140         2.975893
 H        -3.851479         0.809454         3.121297
 H        -4.674650         1.430876         1.526540
 H        -3.290637        -2.118104         1.995960
 H        -3.201028        -1.605843         0.226890
 H        -1.727275        -0.620473         2.804057
