19
Iteration:   701
 O         0.414729        -0.127364         0.668850
 C        -0.857792         0.345039         0.910173
 C        -1.890939         0.958111        -0.019284
 C        -2.426335         0.875567         1.512296
 C        -0.974053         1.412201         1.907279
 C        -3.968245         0.845312         1.837986
 O        -4.196693        -0.606276         1.798846
 C        -3.052563        -1.298068         1.165799
 C        -1.918769        -0.519087         1.628868
 H         0.203501        -0.819789         0.140334
 H        -1.580588         2.042522        -0.292736
 H        -2.474532         0.455766        -0.792596
 H        -0.502657         2.435042         1.723425
 H        -0.343967         1.164822         2.850351
 H        -4.279106         1.276188         2.829258
 H        -4.427853         1.378749         1.019165
 H        -3.029496        -2.245738         1.626541
 H        -3.088469        -1.389737         0.088618
 H        -1.569772        -0.703316         2.623325
