19
Iteration:  4802charge 0 multiplicity 1
 O         0.332728        -0.347054         0.456601
 C        -0.818180         0.375117         0.962076
 C        -1.991624         0.829951         0.047669
 C        -2.439913         1.024616         1.549706
 C        -1.123868         1.744132         1.778568
 C        -3.880274         0.777254         1.946224
 O        -4.152765        -0.595025         1.512068
 C        -2.993939        -1.418796         1.359744
 C        -1.752350        -0.416121         1.805733
 H         0.892833        -0.531478         1.123507
 H        -1.803479         1.663078        -0.503725
 H        -2.488769         0.075298        -0.587923
 H        -1.098794         2.623092         1.131086
 H        -0.974590         1.983371         2.856190
 H        -4.064835         0.909769         3.045180
 H        -4.459601         1.335813         1.257146
 H        -3.014718        -2.216911         2.110091
 H        -3.055783        -1.945124         0.444444
 H        -1.476021        -0.533778         2.824196
