19
Iteration:  1364charge 0 multiplicity 1
 O         0.549460        -0.106178         0.478044
 C        -0.748704         0.325355         0.889024
 C        -1.814835         0.903683         0.057505
 C        -2.463266         0.937755         1.486620
 C        -0.954271         1.399754         2.007797
 C        -3.931711         0.776376         1.854280
 O        -4.358757        -0.608440         1.749696
 C        -3.180211        -1.261426         1.149862
 C        -1.978732        -0.543918         1.698470
 H         1.172625         0.425926         0.915618
 H        -1.733177         1.891035        -0.308153
 H        -2.398145         0.218227        -0.585854
 H        -0.526086         2.505103         1.785961
 H        -0.608372         1.112983         3.002739
 H        -4.045298         1.021760         2.965721
 H        -4.598349         1.445433         1.290543
 H        -3.181020        -2.384351         1.382040
 H        -3.290842        -1.158729         0.071197
 H        -1.652583        -0.813689         2.716333
