19
Iteration:  2394charge 0 multiplicity 1
 O         0.428951        -0.126218         0.443496
 C        -0.789262         0.347651         0.865806
 C        -1.982609         0.912164         0.131727
 C        -2.419705         0.907524         1.583875
 C        -1.022595         1.529812         1.983452
 C        -3.864903         0.768974         1.927812
 O        -4.258799        -0.523360         1.418906
 C        -3.033649        -1.378973         1.375613
 C        -1.856428        -0.497953         1.657722
 H         0.354146        -1.073934         0.956003
 H        -1.901782         2.011401        -0.249943
 H        -2.494853         0.165022        -0.551233
 H        -0.991040         2.543108         1.575362
 H        -0.666073         1.331247         3.085192
 H        -3.936140         1.038710         3.011577
 H        -4.573964         1.475383         1.471749
 H        -3.180947        -2.162356         2.119516
 H        -2.991872        -1.940141         0.434281
 H        -1.374856        -0.772270         2.625444
