19
Iteration:  1400
 O         0.440504        -0.153889         0.474991
 C        -0.818185         0.286748         0.904897
 C        -1.906764         0.912945         0.103372
 C        -2.449975         0.893792         1.534731
 C        -1.108131         1.452399         1.980731
 C        -3.885245         0.800798         1.953403
 O        -4.226682        -0.442130         1.536133
 C        -3.049952        -1.329482         1.228871
 C        -1.864474        -0.572340         1.663990
 H         1.002221         0.082128         1.160521
 H        -1.814974         1.919499        -0.339918
 H        -2.424969         0.288230        -0.623822
 H        -0.797907         2.395452         1.650576
 H        -0.721306         1.175614         3.006619
 H        -3.838127         0.982728         3.088201
 H        -4.649951         1.557986         1.510321
 H        -3.260274        -2.291855         1.749716
 H        -3.117018        -1.573384         0.161173
 H        -1.474886        -1.050435         2.612924
