19
Iteration:  1545charge 0 multiplicity 1
 O         0.505774        -0.149395         0.574402
 C        -0.753796         0.329198         0.910386
 C        -1.924289         0.819997         0.023959
 C        -2.473792         0.940542         1.491867
 C        -1.086618         1.436577         1.927713
 C        -3.890073         0.858326         1.981503
 O        -4.330674        -0.516557         1.680844
 C        -3.057451        -1.359690         1.191864
 C        -1.838235        -0.491669         1.633732
 H         0.956513         0.540141         0.242030
 H        -1.719998         1.763008        -0.519937
 H        -2.481666         0.075576        -0.588713
 H        -0.762534         2.445333         1.735125
 H        -0.713912         1.012898         2.872061
 H        -4.086264         1.043095         3.065163
 H        -4.589256         1.498069         1.378625
 H        -3.108461        -2.299617         1.713613
 H        -3.212606        -1.590950         0.096638
 H        -1.461121        -0.945123         2.596802
