19
Iteration:  1043charge 0 multiplicity 1
 O         0.506037        -0.215737         0.602204
 C        -0.808697         0.380042         0.930934
 C        -1.917888         0.953336         0.042832
 C        -2.492654         0.959747         1.543160
 C        -1.029686         1.461894         2.044624
 C        -3.927340         0.885166         1.831594
 O        -4.190624        -0.610773         1.717064
 C        -3.097004        -1.343840         1.134795
 C        -1.893077        -0.542164         1.614216
 H         0.467526        -0.460574        -0.305464
 H        -1.783889         1.854186        -0.534790
 H        -2.599584         0.282338        -0.582326
 H        -0.769744         2.466058         1.681010
 H        -0.535992         1.206230         2.974199
 H        -3.996261         1.193224         2.906327
 H        -4.481936         1.581638         1.240536
 H        -3.091314        -2.257385         1.768159
 H        -3.276079        -1.593129         0.024150
 H        -1.646089        -0.813829         2.628181
