19
Iteration:  4305
 O         0.436073        -0.152874         0.595621
 C        -0.803938         0.340949         0.918613
 C        -1.850883         0.801428        -0.103749
 C        -2.467347         0.958525         1.364406
 C        -1.028008         1.531851         1.780432
 C        -3.996611         0.761613         1.771895
 O        -4.176369        -0.664119         2.019661
 C        -3.011932        -1.316008         1.351934
 C        -1.900381        -0.387300         1.768693
 H         0.720954         0.131578        -0.350545
 H        -1.698947         1.782782        -0.540293
 H        -2.159412        -0.045687        -0.785754
 H        -0.903732         2.517429         1.254074
 H        -0.773461         1.624730         2.883562
 H        -4.543730         1.318964         2.500157
 H        -4.728768         0.923193         0.918035
 H        -3.107983        -2.422288         1.610562
 H        -3.135228        -1.305187         0.214538
 H        -1.776701        -0.465641         2.851748
