19
Iteration:  3862
 O         0.334199        -0.226705         0.337487
 C        -0.808633         0.349791         0.907675
 C        -1.965419         0.779083         0.052199
 C        -2.453854         1.009832         1.459075
 C        -0.976305         1.695865         1.768286
 C        -3.939223         0.732638         1.899323
 O        -4.220609        -0.654921         1.455615
 C        -2.983862        -1.436486         1.615719
 C        -1.856676        -0.287341         1.898915
 H         1.190216         0.112590         0.921320
 H        -1.893873         1.653571        -0.612720
 H        -2.379109        -0.118626        -0.352328
 H        -0.762877         2.579196         1.172813
 H        -0.369108         1.558289         2.688082
 H        -3.980657         0.694007         3.026776
 H        -4.722701         1.344925         1.468660
 H        -3.065965        -1.860282         2.590986
 H        -3.005670        -2.217541         0.858091
 H        -1.693211        -0.475429         2.920426
