19
Iteration:  1306charge 0 multiplicity 1
 O         0.490715        -0.210339         0.464797
 C        -0.779172         0.364676         0.927836
 C        -1.752068         1.046672         0.036289
 C        -2.491826         0.987205         1.497966
 C        -1.017447         1.378669         1.972152
 C        -4.033851         0.781524         1.843531
 O        -4.233560        -0.664404         1.856075
 C        -3.125301        -1.292030         1.134899
 C        -1.965951        -0.465211         1.646631
 H         1.196795        -0.418737         1.222839
 H        -1.631571         2.120418        -0.284338
 H        -2.202044         0.538428        -0.797827
 H        -0.571873         2.512546         1.793411
 H        -0.810131         0.956691         3.011034
 H        -4.483896         1.173253         2.746673
 H        -4.507303         1.181016         0.970886
 H        -2.935838        -2.270636         1.511175
 H        -3.265143        -1.288090        -0.005771
 H        -1.586309        -0.844418         2.593683
