19
Iteration:  4311charge 0 multiplicity 1
 O         0.408961        -0.167947         0.604994
 C        -0.802866         0.297478         0.932201
 C        -1.837304         0.839770        -0.063877
 C        -2.536604         0.941806         1.346771
 C        -1.007018         1.585413         1.733899
 C        -4.025318         0.712735         1.778621
 O        -4.132532        -0.646793         2.033147
 C        -3.015055        -1.340339         1.329898
 C        -1.928404        -0.396163         1.796845
 H         0.610098         0.127401        -0.400179
 H        -1.650163         1.831625        -0.567480
 H        -2.059118         0.143288        -0.837949
 H        -0.693891         2.519613         1.295655
 H        -0.761470         1.542754         2.766654
 H        -4.602033         1.375307         2.506157
 H        -4.365179         0.946176         0.736300
 H        -3.092824        -2.360460         1.535861
 H        -3.023012        -1.134487         0.267338
 H        -1.621149        -0.367071         2.865449
