19
Iteration:  4987
 O         0.329540        -0.253362         0.593996
 C        -0.854897         0.354986         0.890409
 C        -1.901648         0.839137        -0.117676
 C        -2.497598         0.992196         1.420113
 C        -1.072863         1.580914         1.842488
 C        -3.929415         0.807821         1.969604
 O        -4.174822        -0.617444         1.539075
 C        -2.921844        -1.411853         1.525785
 C        -1.868966        -0.375629         1.787782
 H         0.655063         0.157069        -0.346210
 H        -1.741468         1.704153        -0.741005
 H        -2.052168        -0.030010        -0.841929
 H        -0.849646         2.534499         1.328246
 H        -0.789351         1.486728         2.898741
 H        -3.764091         0.899266         3.001804
 H        -4.722202         1.422685         1.551197
 H        -3.010835        -2.113382         2.394829
 H        -2.877622        -1.976672         0.603827
 H        -1.429679        -0.320352         2.804675
