19
Iteration:   335charge 0 multiplicity 1
 O         0.585809        -0.107165         0.599226
 C        -0.816417         0.230478         0.889070
 C        -1.933292         0.758982         0.054704
 C        -2.490292         0.929144         1.521772
 C        -1.106948         1.550047         1.725104
 C        -3.888774         0.822078         2.019700
 O        -4.303340        -0.520280         1.522412
 C        -3.063222        -1.337106         1.384357
 C        -1.869511        -0.477485         1.783548
 H         0.757864        -0.106084        -0.437337
 H        -1.794108         1.712480        -0.652087
 H        -2.375160         0.104606        -0.681406
 H        -0.814208         2.462914         1.236442
 H        -0.724296         1.481021         2.789324
 H        -3.940779         0.876473         3.185309
 H        -4.573099         1.622369         1.585657
 H        -3.288652        -2.246893         2.039480
 H        -2.906254        -1.635046         0.260498
 H        -1.506611        -0.659734         2.797778
