19
Iteration:  1459charge 0 multiplicity 1
 O         0.333567        -0.116397         0.389354
 C        -0.841975         0.272568         0.959347
 C        -1.982289         1.005508         0.143622
 C        -2.401167         0.901614         1.639816
 C        -0.914776         1.486055         1.954833
 C        -3.966541         0.762175         1.959412
 O        -4.209705        -0.494711         1.187129
 C        -2.973748        -1.364389         1.416439
 C        -1.899517        -0.531302         1.903711
 H         0.319300        -1.193363         0.284028
 H        -1.744245         2.038206        -0.202390
 H        -2.608221         0.389074        -0.542794
 H        -0.525212         2.339709         1.393966
 H        -0.319495         1.310161         2.782987
 H        -4.179310         0.777221         3.044956
 H        -4.537472         1.526314         1.451179
 H        -3.184152        -2.144904         2.087229
 H        -2.619301        -1.743032         0.410613
 H        -1.495071        -0.615009         2.930498
