19
Iteration:   472
 O         0.510824        -0.109306         0.648739
 C        -0.811977         0.350173         0.919568
 C        -1.808610         0.873352        -0.052790
 C        -2.455745         0.917552         1.468116
 C        -1.076319         1.476512         1.871630
 C        -3.857829         0.846757         1.944512
 O        -4.195488        -0.519531         1.735681
 C        -3.157653        -1.476900         1.255917
 C        -1.975089        -0.540388         1.635637
 H         0.774070         0.159743        -0.263801
 H        -1.788499         1.817218        -0.549220
 H        -2.218189         0.123076        -0.797627
 H        -0.945728         2.436965         1.456301
 H        -0.806059         1.484321         2.976813
 H        -3.912807         1.166636         2.930589
 H        -4.533500         1.443852         1.377280
 H        -3.365102        -2.342005         1.918868
 H        -3.471771        -1.698383         0.167376
 H        -1.720124        -0.610699         2.735662
