19
Iteration:  4092
 O         0.513143        -0.106794         0.629259
 C        -0.831119         0.291730         0.910678
 C        -1.893048         0.652437        -0.155135
 C        -2.545660         1.007854         1.329396
 C        -1.071111         1.622676         1.675190
 C        -3.934637         0.801358         1.967128
 O        -4.193014        -0.619113         1.874968
 C        -3.015739        -1.358224         1.423420
 C        -1.921951        -0.436314         1.752091
 H         0.756373         0.382131        -0.059127
 H        -1.644933         1.405892        -0.857428
 H        -2.230199        -0.284109        -0.740634
 H        -0.929981         2.494540         1.048270
 H        -0.588953         1.801521         2.645958
 H        -3.953277         1.078007         3.088291
 H        -4.745980         1.267876         1.445421
 H        -2.916583        -2.282204         1.995831
 H        -3.288924        -1.514765         0.331805
 H        -1.686663        -0.429589         2.818235
