19
Iteration:   965
 O         0.412436        -0.249882         0.567621
 C        -0.786373         0.346934         0.818085
 C        -1.963672         0.968450         0.095162
 C        -2.408491         0.929625         1.547567
 C        -1.088986         1.434490         1.905536
 C        -3.915973         0.855420         1.900877
 O        -4.203111        -0.523796         1.641478
 C        -3.040352        -1.358331         1.239271
 C        -1.860111        -0.578358         1.669331
 H         1.135186         0.401761         1.089471
 H        -1.833151         1.958195        -0.380512
 H        -2.463503         0.274653        -0.642402
 H        -1.009331         2.434880         1.656866
 H        -0.664728         1.304746         2.964456
 H        -4.105296         1.242406         2.938073
 H        -4.391946         1.497675         1.225481
 H        -3.389462        -2.303496         1.551566
 H        -3.075706        -1.491409         0.124161
 H        -1.451514        -0.840965         2.620299
