19
Iteration:  1575
 O         0.384543        -0.275529         0.556952
 C        -0.808663         0.272797         0.969627
 C        -1.918639         1.020072         0.042807
 C        -2.457928         0.950662         1.442762
 C        -1.126717         1.518772         1.918615
 C        -3.862810         0.812561         1.808445
 O        -4.164361        -0.580617         1.847316
 C        -3.054119        -1.364233         1.131504
 C        -1.859128        -0.535127         1.652938
 H         1.072289         0.491956         0.707982
 H        -1.638415         2.036467        -0.258397
 H        -2.503126         0.447872        -0.649634
 H        -0.814709         2.494781         1.518933
 H        -0.759626         1.466409         3.084078
 H        -4.051625         1.191609         2.786589
 H        -4.613006         1.279973         1.107258
 H        -3.196609        -2.412545         1.544875
 H        -3.200120        -1.245632         0.084025
 H        -1.430320        -0.884216         2.615782
