19
Iteration:  3953charge 0 multiplicity 1
 O         0.478088        -0.054506         0.699302
 C        -0.848297         0.242569         0.844924
 C        -1.922716         0.738061        -0.152648
 C        -2.487689         0.940346         1.365348
 C        -1.104580         1.610512         1.602226
 C        -3.914970         0.814295         2.076141
 O        -4.253281        -0.605057         1.701258
 C        -2.978709        -1.387884         1.507252
 C        -1.834774        -0.434448         1.769168
 H         0.675124        -0.446296        -0.311550
 H        -1.774936         1.635883        -0.746193
 H        -2.565403        -0.053723        -0.653347
 H        -0.782114         2.479808         0.956244
 H        -0.761461         1.763957         2.654950
 H        -3.917317         0.999069         3.161013
 H        -4.673261         1.381643         1.476516
 H        -2.931408        -2.159018         2.236013
 H        -2.979588        -1.745693         0.462209
 H        -1.453868        -0.297511         2.819810
