19
Iteration:  2309charge 0 multiplicity 1
 O         0.455928        -0.133077         0.424434
 C        -0.868545         0.261043         0.968276
 C        -2.042193         0.963053         0.102230
 C        -2.424914         0.858808         1.583500
 C        -1.038887         1.443202         1.892403
 C        -3.803917         0.774439         1.965647
 O        -4.192178        -0.485890         1.402859
 C        -3.062576        -1.321111         1.344729
 C        -1.889756        -0.569504         1.732592
 H         1.058341         0.216781         0.967584
 H        -1.614354         1.825375        -0.316922
 H        -2.602656         0.437916        -0.700770
 H        -1.005884         2.506265         1.473107
 H        -0.916341         1.515000         2.996615
 H        -4.016310         0.872605         3.051375
 H        -4.288668         1.594725         1.368605
 H        -3.239468        -1.985615         2.260892
 H        -3.098055        -1.873670         0.381714
 H        -1.593612        -0.842912         2.797938
