19
Iteration:   747charge 0 multiplicity 1
 O         0.498179        -0.090458         0.420422
 C        -0.718763         0.364337         0.931577
 C        -1.808595         0.870176         0.030762
 C        -2.468457         0.872355         1.476592
 C        -1.137939         1.396496         2.024387
 C        -3.901543         0.881851         1.860909
 O        -4.261843        -0.542153         1.712982
 C        -3.122642        -1.318267         1.225188
 C        -1.909836        -0.526123         1.714340
 H         0.557599        -1.055701         0.412110
 H        -1.793909         1.902343        -0.393947
 H        -1.992289         0.080892        -0.683149
 H        -0.957424         2.431595         1.924483
 H        -0.956212         1.293377         3.161886
 H        -3.969094         1.180684         2.984742
 H        -4.551150         1.497671         1.251255
 H        -3.082596        -2.318039         1.709049
 H        -3.261451        -1.379498         0.163483
 H        -1.626220        -0.710050         2.771373
