19
Iteration:  3926charge 0 multiplicity 1
 O         0.532032        -0.083716         0.473879
 C        -0.768732         0.345573         0.852498
 C        -1.976496         0.691149        -0.000984
 C        -2.517190         0.957417         1.416715
 C        -1.083175         1.654914         1.698973
 C        -3.930987         0.773834         1.919306
 O        -4.238926        -0.604319         1.601168
 C        -3.029708        -1.393901         1.550740
 C        -1.831039        -0.390694         1.909566
 H         0.416542        -1.130142         0.250988
 H        -2.071832         1.561849        -0.701601
 H        -2.513945        -0.144051        -0.381606
 H        -0.891412         2.580663         1.179748
 H        -0.577421         1.667429         2.672144
 H        -3.837180         0.909793         3.032643
 H        -4.735814         1.274086         1.402616
 H        -3.086854        -2.187601         2.355664
 H        -2.922900        -1.749103         0.534776
 H        -1.484268        -0.141300         2.892497
