19
Iteration:   757
 O         0.434485        -0.019986         0.448932
 C        -0.808456         0.270568         0.965773
 C        -1.772388         0.863694         0.012747
 C        -2.428464         0.960490         1.454380
 C        -1.117709         1.468201         2.016116
 C        -3.901789         0.805916         1.899921
 O        -4.271444        -0.507727         1.686105
 C        -3.131159        -1.331094         1.227272
 C        -1.829488        -0.574673         1.707363
 H         0.438522        -1.073443         0.564667
 H        -1.381161         1.829689        -0.502234
 H        -2.271704         0.137420        -0.618147
 H        -0.852472         2.431933         1.637360
 H        -0.904406         0.982063         3.054876
 H        -4.010670         1.091748         3.017058
 H        -4.517060         1.453526         1.316561
 H        -3.373981        -2.286920         1.716249
 H        -3.100698        -1.514155         0.169274
 H        -1.428943        -0.867518         2.683562
