19
Iteration:   197
 O         0.500780        -0.023849         0.517690
 C        -0.767585         0.302675         0.859816
 C        -1.891420         0.675879        -0.081660
 C        -2.425045         0.941782         1.521181
 C        -0.969988         1.574995         1.731523
 C        -3.948776         0.726472         2.001367
 O        -4.337474        -0.517312         1.593919
 C        -3.140853        -1.346619         1.427376
 C        -1.882551        -0.456184         1.775507
 H         1.085142        -0.273395         1.413211
 H        -1.860547         1.511924        -0.675405
 H        -2.331792        -0.127861        -0.648953
 H        -0.667089         2.536026         1.150622
 H        -0.589443         1.582400         2.732001
 H        -4.023002         0.796184         3.210244
 H        -4.659216         1.443777         1.566498
 H        -3.245375        -2.217485         2.048768
 H        -3.141936        -1.625405         0.382343
 H        -1.535429        -0.702830         2.809235
