19
Iteration:  4959
 O         0.412934        -0.442945         0.655626
 C        -0.837283         0.285122         0.822788
 C        -2.083107         0.899528        -0.080147
 C        -2.447029         1.037671         1.441947
 C        -1.169939         1.730503         1.813421
 C        -3.898370         0.740524         1.938491
 O        -4.141341        -0.630394         1.593567
 C        -2.923347        -1.355499         1.438583
 C        -1.824699        -0.349298         1.763916
 H         1.136884         0.298008         0.317350
 H        -1.910715         1.786995        -0.759406
 H        -2.532582         0.222853        -0.769553
 H        -1.028901         2.730423         1.347955
 H        -0.835264         1.743342         2.864893
 H        -3.744593         0.845958         3.075207
 H        -4.672661         1.431340         1.528315
 H        -2.955593        -2.171833         2.156923
 H        -2.894549        -1.866721         0.436923
 H        -1.372168        -0.436401         2.751327
