19
Iteration:  3927charge 0 multiplicity 1
 O         0.543049        -0.088693         0.477838
 C        -0.769661         0.345636         0.852508
 C        -1.971822         0.691376        -0.011943
 C        -2.525168         0.964789         1.428172
 C        -1.082553         1.650843         1.689871
 C        -3.940611         0.768093         1.923288
 O        -4.238864        -0.604426         1.605852
 C        -3.031390        -1.394277         1.549833
 C        -1.830499        -0.383855         1.905902
 H         0.445686        -1.088297         0.233508
 H        -2.055419         1.560083        -0.669280
 H        -2.514600        -0.152215        -0.423897
 H        -0.899252         2.580987         1.172861
 H        -0.553957         1.656300         2.664372
 H        -3.821501         0.903785         3.036503
 H        -4.756115         1.267592         1.428620
 H        -3.109677        -2.163160         2.334672
 H        -2.927035        -1.737762         0.540350
 H        -1.517771        -0.156372         2.892377
