19
Iteration:  4601
 O         0.558726        -0.064520         0.397015
 C        -0.737784         0.332816         0.893823
 C        -1.948099         0.716849        -0.044818
 C        -2.452996         0.933487         1.430437
 C        -1.040855         1.619962         1.836089
 C        -3.994109         0.840848         1.743810
 O        -4.259641        -0.587720         1.870588
 C        -3.129784        -1.386156         1.450543
 C        -1.867953        -0.540659         1.797369
 H         1.265877        -0.057569         1.165580
 H        -1.714935         1.586321        -0.703439
 H        -2.458902        -0.015545        -0.640608
 H        -0.857848         2.680761         1.502657
 H        -0.626483         1.351638         2.831672
 H        -4.373994         1.171684         2.748481
 H        -4.641036         1.334366         0.881544
 H        -3.149040        -2.348925         1.980874
 H        -3.147273        -1.667747         0.390617
 H        -1.688185        -0.517973         2.878623
