19
Iteration:  4002charge 0 multiplicity 1
 O         0.477071        -0.171830         0.495750
 C        -0.804234         0.314328         0.882187
 C        -1.868428         0.720584        -0.029287
 C        -2.523136         0.964442         1.383506
 C        -1.133416         1.606747         1.720819
 C        -4.032886         0.807650         1.720025
 O        -4.213899        -0.600457         1.949781
 C        -2.974615        -1.347893         1.486053
 C        -1.826041        -0.456966         1.821354
 H         0.807718         0.433318        -0.058301
 H        -1.494174         1.650865        -0.580842
 H        -2.228356        -0.052863        -0.711652
 H        -0.958099         2.559723         1.249002
 H        -0.729713         1.612120         2.742574
 H        -4.209208         1.282173         2.727583
 H        -4.750320         1.264512         1.030119
 H        -2.957054        -2.372767         2.028979
 H        -3.073525        -1.524739         0.381353
 H        -1.334178        -0.523018         2.863710
