19
Iteration:  4614charge 0 multiplicity 1
 O         0.450037        -0.079969         0.341797
 C        -0.785199         0.230677         0.961327
 C        -1.850838         0.763860         0.053229
 C        -2.502996         0.941256         1.451488
 C        -1.002431         1.561766         1.803594
 C        -3.993398         0.811796         1.703055
 O        -4.212863        -0.660053         1.846974
 C        -3.049582        -1.358886         1.404157
 C        -1.914717        -0.346059         1.872276
 H         1.020551        -0.283971         1.019012
 H        -1.741030         1.711825        -0.466150
 H        -2.329059         0.025864        -0.518404
 H        -0.717047         2.415674         1.124497
 H        -0.715954         1.777061         2.863808
 H        -4.238633         1.395162         2.628165
 H        -4.654976         1.154369         0.843205
 H        -3.182308        -2.385205         1.874562
 H        -3.079805        -1.457789         0.325451
 H        -1.633792        -0.482421         2.902590
