19
Iteration:  1669
 O         0.535534        -0.127424         0.533392
 C        -0.779218         0.300982         0.936849
 C        -1.910382         0.826921        -0.019054
 C        -2.480574         0.900717         1.502824
 C        -0.985366         1.399200         1.929240
 C        -3.913045         0.901665         1.979019
 O        -4.347950        -0.653433         1.570959
 C        -3.115344        -1.298338         1.289057
 C        -1.850361        -0.405516         1.760761
 H         0.601493         0.431288        -0.280191
 H        -1.814192         1.850715        -0.474559
 H        -2.369690         0.076785        -0.610787
 H        -0.635571         2.445366         1.644551
 H        -0.778579         1.221095         2.889707
 H        -3.899918         1.120239         3.088169
 H        -4.610907         1.521487         1.456614
 H        -3.124302        -2.299305         1.744919
 H        -3.031413        -1.333661         0.173436
 H        -1.594809        -0.768114         2.760941
