19
Iteration:  3847charge 0 multiplicity 1
 O         0.334568        -0.227747         0.433799
 C        -0.849709         0.352281         0.913539
 C        -1.921223         0.732837        -0.084340
 C        -2.504605         1.003877         1.486075
 C        -1.040665         1.638227         1.732353
 C        -3.947778         0.718545         2.010022
 O        -4.157029        -0.561767         1.454143
 C        -2.979391        -1.352229         1.656120
 C        -1.825275        -0.434270         1.828175
 H         1.123012         0.324310         0.601470
 H        -1.606626         1.602663        -0.735284
 H        -2.434456         0.010753        -0.723775
 H        -0.871074         2.601927         1.224841
 H        -0.913503         1.723653         2.786081
 H        -3.985659         0.818240         3.123320
 H        -4.805714         1.349742         1.683184
 H        -3.087090        -2.217873         2.397873
 H        -2.788908        -1.899429         0.731403
 H        -1.319032        -0.311516         2.793548
