19
Iteration:  3493
 O         0.488782        -0.075037         0.486280
 C        -0.800679         0.253740         0.896937
 C        -1.848108         0.717037        -0.113305
 C        -2.492735         0.844110         1.340173
 C        -1.123803         1.483485         1.748241
 C        -3.853542         0.847405         1.967780
 O        -4.281069        -0.585357         1.843975
 C        -3.065537        -1.300920         1.350167
 C        -1.924802        -0.399615         1.825487
 H         1.173771         0.623545         0.979699
 H        -1.585982         1.709315        -0.655090
 H        -2.157970        -0.035838        -0.778058
 H        -0.905448         2.473733         1.272678
 H        -0.836941         1.436793         2.788549
 H        -3.821565         0.979784         3.058701
 H        -4.772398         1.351658         1.615338
 H        -2.856355        -2.303996         1.728076
 H        -3.110299        -1.363348         0.237576
 H        -1.811521        -0.368378         2.887594
