19
Iteration:  1295
 O         0.540263        -0.175279         0.433659
 C        -0.744265         0.276093         0.892963
 C        -1.829295         0.970686         0.078828
 C        -2.437061         0.992593         1.554782
 C        -0.990616         1.430298         2.025148
 C        -4.131642         0.804371         1.807916
 O        -4.280204        -0.664360         1.853893
 C        -3.068464        -1.309667         1.111403
 C        -1.927613        -0.417647         1.611611
 H         0.774407        -0.607952         1.230597
 H        -1.423780         1.991336        -0.176021
 H        -2.171684         0.386286        -0.750124
 H        -0.619647         2.530746         1.617247
 H        -0.636238         1.180288         3.097909
 H        -4.341038         1.102291         2.823501
 H        -4.756833         1.358387         1.130948
 H        -3.032994        -2.336219         1.397815
 H        -3.223988        -1.206551        -0.020653
 H        -1.848490        -0.642656         2.661260
