19
Iteration:  3360charge 0 multiplicity 1
 O         0.476318        -0.101322         0.578881
 C        -0.821304         0.256412         0.883360
 C        -2.017458         0.730512        -0.043380
 C        -2.487785         0.914317         1.404283
 C        -1.070375         1.563225         1.656516
 C        -3.832941         0.805803         1.984027
 O        -4.218705        -0.506726         1.682978
 C        -3.055960        -1.381519         1.452588
 C        -1.855434        -0.498561         1.764149
 H         0.880998         0.771231         0.786762
 H        -1.831749         1.650630        -0.676519
 H        -2.563689        -0.045467        -0.634560
 H        -0.878526         2.361936         0.917216
 H        -0.713705         1.677059         2.703072
 H        -3.872546         0.936675         3.109855
 H        -4.588562         1.503841         1.535443
 H        -3.059359        -2.172206         2.202904
 H        -2.884782        -1.788691         0.434757
 H        -1.582908        -0.566645         2.816279
