19
Iteration:  1310
 O         0.463748        -0.209031         0.478070
 C        -0.761642         0.346743         0.939647
 C        -1.766398         1.092286         0.007111
 C        -2.499260         0.966152         1.485168
 C        -1.023977         1.387527         1.993458
 C        -3.980928         0.774791         1.838548
 O        -4.213481        -0.664388         1.847328
 C        -3.127717        -1.272437         1.145803
 C        -1.965987        -0.489006         1.644962
 H         1.132920        -0.310363         1.164465
 H        -1.591360         2.088037        -0.346253
 H        -2.266301         0.512801        -0.803720
 H        -0.636176         2.378212         1.880999
 H        -0.813574         1.067877         2.975245
 H        -4.470042         1.254215         2.752307
 H        -4.545118         1.136527         0.916748
 H        -3.082438        -2.355818         1.509854
 H        -3.320688        -1.340706         0.096806
 H        -1.568369        -0.845574         2.598373
