19
Iteration:   682charge 0 multiplicity 1
 O         0.517237        -0.232453         0.581488
 C        -0.753868         0.283140         0.900982
 C        -1.927378         0.968714         0.030992
 C        -2.454795         1.004781         1.438004
 C        -1.114729         1.485554         1.993723
 C        -3.883500         0.835346         1.848294
 O        -4.205052        -0.615013         1.778128
 C        -3.083857        -1.315228         1.192827
 C        -1.922170        -0.466575         1.642498
 H         0.541433        -0.625559        -0.196766
 H        -1.692681         1.930809        -0.407686
 H        -2.316848         0.194073        -0.543259
 H        -0.776701         2.451469         1.704499
 H        -1.063429         1.327162         3.168184
 H        -3.984493         1.024731         3.001787
 H        -4.609101         1.366812         1.220884
 H        -3.263380        -2.366314         1.549230
 H        -3.141913        -1.239876         0.086551
 H        -1.665435        -0.767048         2.706176
