19
Iteration:  4142
 O         0.446960         0.010577         0.484658
 C        -0.791868         0.334338         0.873109
 C        -1.970769         0.701743        -0.041837
 C        -2.470402         0.938975         1.482879
 C        -1.108516         1.579504         1.698718
 C        -3.896923         0.848873         1.877335
 O        -4.162327        -0.579308         1.597211
 C        -3.014439        -1.475240         1.582230
 C        -1.856887        -0.436956         1.826779
 H         0.504837        -1.063796         0.521155
 H        -1.870427         1.626609        -0.668739
 H        -2.588861        -0.056019        -0.526814
 H        -0.752488         2.535658         1.268617
 H        -0.776854         1.642898         2.757374
 H        -4.167209         0.970491         2.956421
 H        -4.669805         1.479262         1.358252
 H        -3.117690        -2.148422         2.482152
 H        -3.089066        -2.122848         0.714170
 H        -1.370978        -0.363648         2.834195
