19
Iteration:  1640
 O         0.469415        -0.200344         0.548122
 C        -0.822457         0.297378         0.930572
 C        -1.865802         0.951899         0.042611
 C        -2.462945         0.845622         1.600499
 C        -1.155205         1.520192         1.937587
 C        -3.885212         0.884163         1.805707
 O        -4.114788        -0.530817         1.769957
 C        -3.099142        -1.420138         1.173075
 C        -1.907446        -0.530154         1.670649
 H         0.653679         0.444685        -0.346185
 H        -1.701544         1.996336        -0.255022
 H        -2.477968         0.292519        -0.548400
 H        -0.999054         2.449825         1.496765
 H        -0.802554         1.344698         3.070669
 H        -4.056200         1.447820         2.717755
 H        -4.413126         1.410395         0.963591
 H        -3.215649        -2.461180         1.734708
 H        -3.239924        -1.535016         0.123820
 H        -1.703807        -0.999428         2.640170
