19
Iteration:  1019charge 0 multiplicity 1
 O         0.431946        -0.224549         0.510623
 C        -0.784904         0.285378         0.897893
 C        -1.799449         0.944069         0.015053
 C        -2.451716         0.857770         1.513540
 C        -1.170730         1.498703         2.060641
 C        -3.882375         0.883020         1.842548
 O        -4.231546        -0.590215         1.730669
 C        -3.055256        -1.330517         1.215000
 C        -1.886441        -0.532787         1.711727
 H         0.620554         0.232623        -0.461394
 H        -1.614488         2.027684        -0.075778
 H        -2.213574         0.587796        -0.975982
 H        -0.843991         2.396755         1.692307
 H        -0.894565         1.281915         3.147131
 H        -4.165991         1.356729         2.867635
 H        -4.352556         1.488182         1.078481
 H        -3.271503        -2.302304         1.621086
 H        -3.119224        -1.314064         0.034894
 H        -1.646710        -0.712965         2.747964
