19
Iteration:   658
 O         0.469124        -0.178075         0.538296
 C        -0.754124         0.313008         0.969244
 C        -1.758420         0.910688        -0.060660
 C        -2.446441         0.892935         1.472363
 C        -1.142404         1.514127         1.939246
 C        -3.920003         0.834362         1.954214
 O        -4.295090        -0.525033         1.718737
 C        -3.068499        -1.383359         1.188978
 C        -1.899485        -0.523318         1.723521
 H         0.489494        -0.125276        -0.524876
 H        -1.352789         1.926345        -0.319366
 H        -2.074930         0.218312        -0.818098
 H        -1.027421         2.642036         1.734535
 H        -0.831387         1.342967         3.069258
 H        -3.949568         1.025665         3.124195
 H        -4.587774         1.468620         1.380139
 H        -3.259978        -2.305228         1.736575
 H        -3.228239        -1.517122         0.108311
 H        -1.755403        -0.843963         2.763940
