19
Iteration:  3905
 O         0.329796        -0.068592         0.395985
 C        -0.881609         0.321881         0.948714
 C        -2.040647         0.615415        -0.054499
 C        -2.464583         0.949673         1.585850
 C        -1.144089         1.641599         1.769228
 C        -3.865584         0.878103         1.790972
 O        -4.120859        -0.544684         1.550534
 C        -2.893049        -1.413889         1.588161
 C        -1.760742        -0.464902         1.864282
 H         0.513113        -1.033062         0.547388
 H        -1.871017         1.603603        -0.512087
 H        -2.454358        -0.169498        -0.646734
 H        -1.011735         2.607208         1.309323
 H        -0.798269         1.619649         2.832892
 H        -4.053985         1.121686         2.878750
 H        -4.383980         1.414807         1.009791
 H        -3.052344        -1.915017         2.556035
 H        -2.879280        -1.959283         0.676247
 H        -1.414168        -0.519471         2.887938
