19
Iteration:  2141charge 0 multiplicity 1
 O         0.517247         0.013820         0.446321
 C        -0.772751         0.282058         0.929544
 C        -1.892611         0.820174         0.016425
 C        -2.455460         0.907251         1.484772
 C        -1.037692         1.425786         1.953287
 C        -3.857776         0.857084         1.904104
 O        -4.277666        -0.552459         1.682043
 C        -3.184937        -1.308832         1.230736
 C        -1.910139        -0.582552         1.731266
 H         1.086289        -0.406053         1.172281
 H        -1.811408         1.824642        -0.467126
 H        -2.461715         0.131436        -0.627379
 H        -0.778519         2.365915         1.604763
 H        -0.548746         1.099368         2.933668
 H        -4.029229         1.071376         2.989750
 H        -4.555573         1.521365         1.383931
 H        -3.151456        -2.296714         1.634755
 H        -3.213959        -1.535074         0.106460
 H        -1.700502        -0.678093         2.812508
