19
Iteration:  2142charge 0 multiplicity 1
 O         0.518477         0.009642         0.441295
 C        -0.771800         0.284541         0.923172
 C        -1.889663         0.816272         0.024719
 C        -2.459128         0.910514         1.479841
 C        -1.046840         1.422033         1.960079
 C        -3.850354         0.860493         1.900457
 O        -4.279427        -0.559175         1.685438
 C        -3.179555        -1.302050         1.225626
 C        -1.914473        -0.577382         1.729477
 H         1.093780        -0.427177         1.203851
 H        -1.841347         1.831612        -0.454696
 H        -2.452443         0.137342        -0.588640
 H        -0.785880         2.376299         1.618628
 H        -0.548310         1.113189         2.935121
 H        -4.008296         1.098123         2.991696
 H        -4.556137         1.520586         1.368613
 H        -3.154422        -2.312811         1.651447
 H        -3.218748        -1.543875         0.101382
 H        -1.679239        -0.682484         2.822655
