19
Iteration:  2571
 O         0.556856        -0.056743         0.629273
 C        -0.810820         0.293629         0.848145
 C        -1.939803         0.883767        -0.036070
 C        -2.428078         0.931784         1.476584
 C        -1.061792         1.524568         1.875758
 C        -3.859420         0.810550         1.915071
 O        -4.315543        -0.568513         1.697184
 C        -3.088781        -1.413374         1.244554
 C        -1.886556        -0.509486         1.765526
 H         0.505150        -0.575717        -0.161733
 H        -1.918515         1.897326        -0.382437
 H        -2.464707         0.097034        -0.597586
 H        -0.754422         2.481906         1.469581
 H        -0.744521         1.306952         2.843364
 H        -3.861720         1.067262         2.973255
 H        -4.510938         1.517522         1.371916
 H        -3.229765        -2.360004         1.846566
 H        -3.153914        -1.666298         0.192483
 H        -1.489309        -0.728441         2.757087
