19
Iteration:  4940charge 0 multiplicity 1
 O         0.357944        -0.310792         0.588691
 C        -0.828196         0.348736         0.925694
 C        -1.964227         0.759761         0.005008
 C        -2.493272         0.888216         1.570016
 C        -1.131028         1.644706         1.629336
 C        -3.957611         0.853401         1.956149
 O        -4.195846        -0.568899         1.608476
 C        -2.861538        -1.339005         1.356454
 C        -1.793261        -0.424547         1.828142
 H         1.124361         0.392391         0.424812
 H        -1.769788         1.750002        -0.538643
 H        -2.607665         0.174975        -0.696657
 H        -0.947694         2.580047         1.131368
 H        -0.772041         1.624474         2.674902
 H        -4.145419         1.053262         3.000245
 H        -4.672676         1.304894         1.265399
 H        -2.870281        -2.342371         1.835341
 H        -2.889265        -1.476665         0.236431
 H        -1.364332        -0.485076         2.872013
