19
Iteration:  2931charge 0 multiplicity 1
 O         0.475625        -0.121472         0.483954
 C        -0.863668         0.256993         0.941858
 C        -1.976851         0.773076         0.005519
 C        -2.451643         0.901846         1.534348
 C        -1.135178         1.696133         1.789450
 C        -3.894196         0.823256         1.858766
 O        -4.235852        -0.523220         1.548803
 C        -2.894616        -1.443508         1.479004
 C        -1.874877        -0.463812         1.843775
 H         0.350548        -0.959536         0.104113
 H        -1.801908         1.699302        -0.548747
 H        -2.550597         0.022024        -0.467678
 H        -1.059742         2.728765         1.235671
 H        -0.670918         1.701808         2.736290
 H        -3.906323         1.138145         2.919497
 H        -4.505294         1.431002         1.201377
 H        -3.007439        -2.139287         2.267276
 H        -2.876115        -1.765775         0.448370
 H        -1.382416        -0.779041         2.751013
