19
Iteration:  3780charge 0 multiplicity 1
 O         0.500393        -0.106404         0.508126
 C        -0.750727         0.287382         0.896431
 C        -1.901507         0.789076        -0.058069
 C        -2.472709         0.969485         1.371189
 C        -1.122301         1.529891         1.807166
 C        -3.918512         0.815208         1.799268
 O        -4.230092        -0.654401         1.888102
 C        -3.002736        -1.341346         1.440201
 C        -1.914255        -0.431237         1.834895
 H         0.486325        -0.377803        -0.503102
 H        -1.703011         1.739630        -0.527540
 H        -2.521198         0.291990        -0.879853
 H        -0.765814         2.425367         1.279670
 H        -0.850418         1.677942         2.834266
 H        -4.154081         1.266642         2.791676
 H        -4.675224         1.236878         1.085412
 H        -2.962456        -2.396733         1.829534
 H        -3.103312        -1.457427         0.354284
 H        -1.744269        -0.373399         2.922642
