19
Iteration:  1185charge 0 multiplicity 1
 O         0.366122        -0.231020         0.350131
 C        -0.787148         0.271860         0.958956
 C        -2.051691         0.873642         0.139737
 C        -2.409745         0.868021         1.618124
 C        -1.102450         1.491546         2.069718
 C        -3.832153         0.827941         1.922273
 O        -4.124349        -0.416937         1.269756
 C        -3.003026        -1.318756         1.340238
 C        -1.873398        -0.514459         1.787901
 H         1.084342         0.040057         0.828099
 H        -2.061669         1.910446        -0.270069
 H        -2.680330         0.192551        -0.436962
 H        -1.174790         2.572057         1.757397
 H        -0.702119         1.198692         3.064468
 H        -4.018754         0.612533         3.046378
 H        -4.475380         1.595393         1.501404
 H        -3.293389        -1.983251         2.094407
 H        -2.974411        -1.684704         0.280369
 H        -1.519810        -0.797987         2.756841
