19
Iteration:  4275charge 0 multiplicity 1
 O         0.532169        -0.143140         0.585124
 C        -0.777823         0.314891         0.839087
 C        -1.979611         0.762923        -0.099351
 C        -2.443606         0.894913         1.360101
 C        -1.261324         1.587968         1.851479
 C        -3.852175         0.873697         1.873384
 O        -4.188070        -0.498019         1.806800
 C        -3.024323        -1.468558         1.474328
 C        -1.814668        -0.512812         1.692342
 H         0.964289         0.459432        -0.155994
 H        -1.962847         1.729878        -0.556935
 H        -2.322950        -0.068813        -0.784507
 H        -1.211391         2.607097         1.436943
 H        -1.179247         1.527474         2.948854
 H        -4.067959         1.289997         2.943479
 H        -4.536619         1.217682         1.111330
 H        -3.215060        -2.292708         2.222239
 H        -3.203560        -1.791105         0.476273
 H        -1.586085        -0.573671         2.801767
