19
Iteration:  1654
 O         0.478800        -0.133183         0.535270
 C        -0.757638         0.321481         0.921687
 C        -1.933542         0.855858         0.070576
 C        -2.403158         0.907149         1.511618
 C        -1.065579         1.519886         1.961411
 C        -3.884337         0.833303         1.858915
 O        -4.300763        -0.542931         1.706968
 C        -3.099236        -1.324615         1.212198
 C        -1.857510        -0.615641         1.706490
 H         0.799529         0.226142        -0.233856
 H        -1.765560         1.787274        -0.464542
 H        -2.383747         0.191916        -0.719199
 H        -0.849753         2.588140         1.591327
 H        -0.689658         1.378068         3.075115
 H        -4.168920         1.021686         2.884027
 H        -4.500546         1.473532         1.177691
 H        -3.231754        -2.291450         1.645009
 H        -3.190249        -1.490053         0.120626
 H        -1.522370        -0.754223         2.746106
