19
Iteration:  1542
 O         0.511827        -0.141562         0.569933
 C        -0.757164         0.303792         0.924670
 C        -1.920441         0.818629         0.033818
 C        -2.467000         0.964006         1.477015
 C        -1.060733         1.434116         1.932906
 C        -3.917700         0.843468         1.982600
 O        -4.338951        -0.512008         1.670885
 C        -3.060959        -1.366357         1.195037
 C        -1.848083        -0.484852         1.636970
 H         0.996539         0.662136         0.112036
 H        -1.745469         1.730381        -0.568926
 H        -2.444780         0.123055        -0.579124
 H        -0.766545         2.439022         1.637385
 H        -0.665442         1.067398         3.022629
 H        -4.026130         0.956988         3.033596
 H        -4.600081         1.575688         1.449601
 H        -3.124524        -2.368434         1.735648
 H        -3.217680        -1.639430         0.170973
 H        -1.456637        -0.956910         2.544535
