19
Iteration:  4038
 O         0.413208        -0.273773         0.478407
 C        -0.845678         0.341009         0.851722
 C        -1.954372         0.844426        -0.020576
 C        -2.504116         1.038332         1.426778
 C        -1.077009         1.613745         1.787213
 C        -4.016844         0.779912         1.582731
 O        -4.117709        -0.628451         1.991993
 C        -2.934789        -1.387676         1.521073
 C        -1.850768        -0.395565         1.777853
 H         1.101396         0.274441         0.531920
 H        -1.772869         1.657967        -0.655017
 H        -2.621062         0.082786        -0.530602
 H        -0.885189         2.630060         1.439596
 H        -0.813953         1.375004         2.832467
 H        -4.456587         1.390118         2.398303
 H        -4.490102         0.846933         0.610460
 H        -2.766298        -2.202955         2.218694
 H        -3.110435        -1.691483         0.460457
 H        -1.376846        -0.655590         2.661006
