19
Iteration:  4383
 O         0.500994        -0.145521         0.490109
 C        -0.837527         0.287009         0.942784
 C        -1.941985         0.765708        -0.059360
 C        -2.454798         0.912126         1.441200
 C        -1.121753         1.571355         1.651602
 C        -3.888636         0.813391         1.911548
 O        -4.254817        -0.582284         1.678930
 C        -2.998146        -1.418987         1.508141
 C        -1.918937        -0.409914         1.857163
 H         0.930192         0.834895         0.449571
 H        -1.598853         1.663981        -0.538664
 H        -2.372415         0.032299        -0.791685
 H        -0.583469         2.423443         1.161018
 H        -0.814686         1.615808         2.740568
 H        -3.937036         1.105525         2.973835
 H        -4.594590         1.385491         1.265729
 H        -2.991839        -2.298344         2.243896
 H        -3.028320        -1.743985         0.430049
 H        -1.677725        -0.344831         2.928537
