19
Iteration:  3740charge 0 multiplicity 1
 O         0.500512        -0.106534         0.507380
 C        -0.830950         0.343210         0.846100
 C        -1.876871         0.924111        -0.054031
 C        -2.454727         0.887937         1.434467
 C        -1.149202         1.499912         1.839853
 C        -3.983049         0.817548         1.679741
 O        -4.180709        -0.609742         2.062125
 C        -3.047152        -1.364617         1.398873
 C        -1.836616        -0.439743         1.650166
 H         0.454266        -0.952682         0.772373
 H        -1.822473         1.936843        -0.587947
 H        -2.240311         0.142409        -0.657810
 H        -0.740644         2.465105         1.387580
 H        -0.852138         1.363255         2.879897
 H        -4.428265         1.441408         2.483437
 H        -4.380287         1.032428         0.698184
 H        -3.024037        -2.278230         2.035404
 H        -3.154737        -1.646940         0.340564
 H        -1.448808        -0.771974         2.610896
