19
Iteration:   293charge 0 multiplicity 1
 O         0.308657        -0.242219         0.546590
 C        -0.875863         0.297564         0.911259
 C        -1.943281         0.818630         0.013458
 C        -2.422817         1.001571         1.501832
 C        -1.065054         1.529085         1.854991
 C        -3.886623         0.848936         1.936563
 O        -4.207109        -0.571653         1.421287
 C        -2.951045        -1.368150         1.469632
 C        -1.818725        -0.418325         1.826839
 H         0.763156         0.289880        -0.013756
 H        -1.711296         1.852191        -0.596472
 H        -2.552751         0.049708        -0.528479
 H        -0.776195         2.481970         1.341148
 H        -0.671833         1.480478         2.861239
 H        -3.898819         0.836327         2.971229
 H        -4.645590         1.485588         1.503594
 H        -3.012682        -2.261902         2.118883
 H        -2.784642        -1.867052         0.436953
 H        -1.446196        -0.554359         2.845640
