19
Iteration:  4124charge 0 multiplicity 1
 O         0.573159        -0.001954         0.631342
 C        -0.805744         0.288856         0.866877
 C        -2.105609         0.684190        -0.050074
 C        -2.479679         0.876942         1.365745
 C        -1.166436         1.663113         1.693773
 C        -3.800754         0.834114         1.907224
 O        -4.234909        -0.541318         1.694794
 C        -3.020669        -1.382940         1.531038
 C        -1.799542        -0.548018         1.775970
 H         0.573943        -0.765671        -0.157050
 H        -2.002876         1.603148        -0.582678
 H        -2.454369        -0.172068        -0.719217
 H        -1.161488         2.572248         1.119351
 H        -0.788057         1.800041         2.695786
 H        -3.887678         1.138613         2.975324
 H        -4.480224         1.464688         1.366440
 H        -3.029334        -2.221991         2.213270
 H        -3.205017        -1.848957         0.536790
 H        -1.496745        -0.580523         2.857858
