19
Iteration:  1601
 O         0.421488        -0.308994         0.511246
 C        -0.750530         0.349824         0.915549
 C        -1.783347         1.005039        -0.069112
 C        -2.479240         0.994082         1.478201
 C        -0.986053         1.427330         2.021945
 C        -4.040288         0.771107         1.798193
 O        -4.191337        -0.702652         1.881585
 C        -3.088947        -1.306002         1.202266
 C        -1.976145        -0.335204         1.679643
 H         1.049167         0.436417         0.315487
 H        -1.641188         2.007106        -0.515486
 H        -2.226765         0.242705        -0.800374
 H        -0.712648         2.523359         1.856373
 H        -0.593821         1.230483         3.007323
 H        -4.476048         1.062074         2.835104
 H        -4.704050         1.162837         1.016776
 H        -3.032113        -2.282944         1.552720
 H        -3.235920        -1.175979         0.067128
 H        -1.522949        -0.619770         2.673202
