19
Iteration:  1807charge 0 multiplicity 1
 O         0.454975        -0.177746         0.569955
 C        -0.785924         0.319069         0.868038
 C        -2.001910         0.934855        -0.026033
 C        -2.394428         0.906507         1.511356
 C        -1.065169         1.522835         1.971477
 C        -3.868702         0.797632         1.975166
 O        -4.246533        -0.507687         1.528855
 C        -3.049516        -1.377615         1.333404
 C        -1.862809        -0.583191         1.722553
 H         0.794743         0.074447        -0.220851
 H        -2.011460         1.962805        -0.492779
 H        -2.506043         0.297520        -0.789751
 H        -0.721717         2.511763         1.688485
 H        -0.753125         1.350867         3.022593
 H        -4.006224         0.880699         3.077786
 H        -4.503158         1.564562         1.457933
 H        -3.369451        -2.261992         2.019546
 H        -2.988820        -1.629923         0.223696
 H        -1.593189        -0.741949         2.765012
