19
Iteration:  2188charge 0 multiplicity 1
 O         0.306281        -0.212961         0.411205
 C        -0.823290         0.306200         0.916771
 C        -1.794455         1.080520         0.088193
 C        -2.460206         0.966357         1.499263
 C        -1.021437         1.478021         1.972966
 C        -3.914062         0.767903         1.725828
 O        -4.175990        -0.662638         1.834398
 C        -3.039025        -1.328580         1.234627
 C        -1.941292        -0.462328         1.707425
 H         0.769381        -0.730350         1.223323
 H        -1.302142         2.032238        -0.193141
 H        -2.155615         0.603536        -0.790744
 H        -0.734249         2.487055         1.579828
 H        -0.968653         1.267894         3.036096
 H        -4.205893         1.187272         2.721878
 H        -4.648960         1.234082         1.030846
 H        -2.965160        -2.444584         1.474661
 H        -3.058178        -1.334980         0.097656
 H        -1.561854        -0.706649         2.754138
