19
Iteration:  4167
 O         0.400016        -0.165597         0.280204
 C        -0.775072         0.328547         0.947869
 C        -2.001620         0.787153         0.000783
 C        -2.493323         0.958190         1.487790
 C        -1.049734         1.604806         1.801968
 C        -3.989322         0.717229         1.798728
 O        -4.230677        -0.627073         1.482616
 C        -2.883284        -1.315126         1.650358
 C        -1.824486        -0.340312         1.966893
 H         0.833894        -0.803962         0.974878
 H        -1.836795         1.636419        -0.620504
 H        -2.713694         0.018328        -0.461482
 H        -0.716013         2.522558         1.398250
 H        -0.744883         1.612429         2.837513
 H        -4.158935         0.849168         2.857602
 H        -4.727942         1.342722         1.365016
 H        -3.101091        -2.004977         2.441558
 H        -2.677150        -1.895389         0.788816
 H        -1.333596        -0.192541         2.947225
