19
Iteration:   695
 O         0.457202        -0.169804         0.656086
 C        -0.831100         0.347007         0.920149
 C        -1.919668         0.972836        -0.054853
 C        -2.439172         0.930119         1.484210
 C        -0.986030         1.446553         1.954491
 C        -3.926633         0.830088         1.851698
 O        -4.212855        -0.589789         1.804712
 C        -3.056388        -1.340280         1.124183
 C        -1.896447        -0.507852         1.697107
 H         0.277205        -0.880144        -0.176403
 H        -1.714023         1.912089        -0.482822
 H        -2.517003         0.496300        -0.853487
 H        -0.730223         2.482195         1.848390
 H        -0.568368         1.114490         2.913215
 H        -4.199184         1.320460         2.820961
 H        -4.552371         1.390753         1.093124
 H        -2.980838        -2.410176         1.538590
 H        -3.238228        -1.441612         0.019130
 H        -1.683879        -0.685638         2.800884
