19
Iteration:   368charge 0 multiplicity 1
 O         0.491184        -0.080868         0.482651
 C        -0.820248         0.294561         0.934410
 C        -1.957406         0.841459         0.006307
 C        -2.472726         0.998501         1.455529
 C        -1.079300         1.496975         1.948441
 C        -3.904883         0.888449         1.809122
 O        -4.210512        -0.550309         1.667848
 C        -3.044787        -1.413954         1.420932
 C        -1.859680        -0.516984         1.712337
 H         0.456441        -1.006966        -0.017774
 H        -1.690631         1.780981        -0.581392
 H        -2.388876        -0.011097        -0.470859
 H        -0.708021         2.504130         1.695114
 H        -0.879044         1.205535         2.987455
 H        -4.128615         1.240647         2.897674
 H        -4.487187         1.481787         1.048728
 H        -3.220979        -2.300480         2.098651
 H        -2.967572        -1.861328         0.381346
 H        -1.472941        -0.706833         2.713062
