19
Iteration:  1700
 O         0.402011        -0.216316         0.544562
 C        -0.820580         0.313429         0.950430
 C        -1.950891         0.913306         0.051089
 C        -2.440117         0.905420         1.523109
 C        -1.091841         1.539717         1.928033
 C        -3.801616         0.805765         1.997470
 O        -4.203686        -0.516293         1.413734
 C        -3.098785        -1.380810         1.366929
 C        -1.819852        -0.531916         1.711295
 H         0.578053         0.362618        -0.235853
 H        -1.797060         1.878452        -0.451510
 H        -2.468755         0.285090        -0.671191
 H        -0.782792         2.602785         1.457849
 H        -0.806648         1.564089         2.996959
 H        -3.807376         0.803194         3.107025
 H        -4.554135         1.473745         1.607106
 H        -3.259601        -2.168196         2.030291
 H        -3.228325        -1.850817         0.347783
 H        -1.428147        -0.727395         2.739383
