19
Iteration:  2808
 O         0.379499        -0.209533         0.585951
 C        -0.809330         0.326414         0.923562
 C        -1.911681         0.950202        -0.002898
 C        -2.483485         0.848467         1.369346
 C        -1.090427         1.525173         1.839871
 C        -3.933486         0.887951         1.761814
 O        -4.165975        -0.639223         1.850785
 C        -2.913013        -1.380757         1.390493
 C        -1.908268        -0.410800         1.753566
 H         0.342057        -0.406198        -0.474627
 H        -1.704617         1.888009        -0.497247
 H        -2.270827         0.291360        -0.812879
 H        -0.740373         2.561130         1.682999
 H        -0.876040         1.397924         2.981018
 H        -4.376631         1.381982         2.640585
 H        -4.449282         1.279264         0.878758
 H        -2.944620        -2.388728         1.730000
 H        -2.962065        -1.615908         0.285190
 H        -1.503726        -0.487250         2.789453
