19
Iteration:   221
 O         0.460451        -0.166320         0.370466
 C        -0.780856         0.281706         0.953555
 C        -1.957409         0.750327         0.040350
 C        -2.504393         0.930296         1.430658
 C        -1.150021         1.502724         1.855256
 C        -3.859413         0.896378         1.907121
 O        -4.204211        -0.528282         1.524428
 C        -2.986381        -1.361147         1.450979
 C        -1.882435        -0.453257         1.879344
 H         1.155740         0.154332         0.874932
 H        -1.770768         1.601317        -0.499209
 H        -2.519161         0.022007        -0.614320
 H        -1.012494         2.534340         1.367597
 H        -0.932870         1.581507         2.903860
 H        -3.870569         1.015689         3.103624
 H        -4.634586         1.526102         1.432772
 H        -3.185951        -2.286580         2.074877
 H        -2.839496        -1.708526         0.455250
 H        -1.705382        -0.606791         2.967047
