19
Iteration:  4859charge 0 multiplicity 1
 O         0.580918        -0.038487         0.530899
 C        -0.850514         0.341821         0.830096
 C        -1.932422         0.841821        -0.026677
 C        -2.465826         1.015187         1.420155
 C        -1.050158         1.512575         1.845371
 C        -3.878997         0.825665         1.842899
 O        -4.246641        -0.576586         1.631901
 C        -3.095880        -1.521534         1.576008
 C        -1.934196        -0.481653         1.724948
 H         0.621367        -1.006657         0.051075
 H        -1.759892         1.859225        -0.467084
 H        -2.368678         0.070160        -0.626849
 H        -0.786195         2.468397         1.348685
 H        -0.605296         1.450626         2.834577
 H        -4.000433         1.227970         2.904523
 H        -4.708558         1.354205         1.384649
 H        -3.019803        -2.040116         2.526681
 H        -3.259293        -2.211736         0.720251
 H        -1.629766        -0.444449         2.765328
