19
Iteration:   947
 O         0.474459        -0.223095         0.499048
 C        -0.819864         0.229769         0.969055
 C        -1.974574         0.943401        -0.003626
 C        -2.432644         0.876735         1.519815
 C        -1.108492         1.499294         1.924334
 C        -3.871408         0.856629         1.976416
 O        -4.241356        -0.525010         1.574002
 C        -3.054699        -1.285513         1.207181
 C        -1.857297        -0.549246         1.716705
 H         1.127767         0.287683         1.199646
 H        -1.677941         1.922098        -0.348947
 H        -2.494578         0.515986        -0.877192
 H        -0.716437         2.516257         1.458936
 H        -0.822079         1.329778         2.938073
 H        -3.970610         0.893607         3.048198
 H        -4.665155         1.577022         1.574026
 H        -3.051941        -2.244573         1.815333
 H        -3.177775        -1.550276         0.155857
 H        -1.522511        -0.851403         2.745748
