19
Iteration:   412
 O         0.322924        -0.218552         0.449524
 C        -0.813441         0.299260         0.962456
 C        -1.848327         0.888547         0.038163
 C        -2.452626         1.086789         1.470253
 C        -1.011174         1.557877         1.899258
 C        -3.905075         0.815833         1.767708
 O        -4.188724        -0.659724         1.809982
 C        -3.057791        -1.371760         1.246480
 C        -1.877991        -0.459096         1.736012
 H         0.930244        -0.264926         1.187612
 H        -1.464152         1.913448        -0.284870
 H        -2.408027         0.229201        -0.582996
 H        -0.667971         2.515124         1.417381
 H        -0.903252         1.424101         2.966409
 H        -4.243437         1.273752         2.797013
 H        -4.510915         1.184699         0.876787
 H        -2.946725        -2.409853         1.649335
 H        -3.272342        -1.611993         0.195795
 H        -1.732607        -0.727033         2.786206
