19
Iteration:  2500charge 0 multiplicity 1
 O         0.345332        -0.256353         0.482729
 C        -0.849021         0.316203         0.935707
 C        -1.857078         1.036421         0.016101
 C        -2.475681         1.000674         1.500796
 C        -1.062473         1.506287         1.939767
 C        -3.972295         0.771428         1.738609
 O        -4.144237        -0.601222         1.761456
 C        -3.040975        -1.381871         1.302191
 C        -1.857200        -0.532722         1.739720
 H         0.974450         0.539447         0.463435
 H        -1.353880         2.031571        -0.258216
 H        -2.314720         0.415541        -0.751419
 H        -0.524581         2.407366         1.559937
 H        -0.899757         1.275613         3.022671
 H        -4.059140         1.058547         2.813169
 H        -4.639983         1.363579         1.101202
 H        -3.127950        -2.364148         1.781528
 H        -3.037577        -1.464695         0.150132
 H        -1.530765        -0.861009         2.743130
