19
Iteration:  4903
 O         0.510506        -0.086188         0.433273
 C        -0.745402         0.287889         0.923359
 C        -1.934248         0.750664        -0.035147
 C        -2.451525         0.950597         1.448665
 C        -1.118992         1.492703         1.859374
 C        -3.957941         0.894853         1.798844
 O        -4.264436        -0.568795         1.666417
 C        -3.023202        -1.465208         1.549460
 C        -1.871141        -0.438862         1.808367
 H         0.759851         0.572593        -0.255989
 H        -1.624701         1.627469        -0.593839
 H        -2.393713        -0.052985        -0.567133
 H        -0.859699         2.540171         1.592822
 H        -0.910726         1.266655         2.902193
 H        -4.139017         1.343800         2.822651
 H        -4.519824         1.571316         1.157635
 H        -3.102602        -2.195720         2.343093
 H        -3.018239        -1.940723         0.552168
 H        -1.565374        -0.641625         2.820320
