19
Iteration:  2146
 O         0.528350        -0.015552         0.432688
 C        -0.768941         0.294669         0.900981
 C        -1.883130         0.817285         0.058744
 C        -2.455851         0.915471         1.468269
 C        -1.079564         1.401605         1.984099
 C        -3.838374         0.874296         1.893961
 O        -4.286599        -0.577474         1.699430
 C        -3.148273        -1.296499         1.204822
 C        -1.929903        -0.547464         1.720525
 H         0.979034        -0.401013         1.148455
 H        -1.896739         1.801449        -0.399820
 H        -2.440435         0.086992        -0.528987
 H        -0.785877         2.487429         1.659214
 H        -0.638817         1.206286         2.936107
 H        -3.907144         1.169915         2.944907
 H        -4.539742         1.494636         1.297728
 H        -3.206402        -2.327561         1.720704
 H        -3.223056        -1.512711         0.152668
 H        -1.627421        -0.739786         2.776241
