19
Iteration:  3219
 O         0.427969        -0.204223         0.627454
 C        -0.818104         0.319828         0.850158
 C        -2.079248         0.709444        -0.075068
 C        -2.490609         0.960229         1.414299
 C        -1.105855         1.581911         1.689380
 C        -3.912028         0.840312         1.965277
 O        -4.230444        -0.494115         1.615586
 C        -2.880329        -1.385707         1.533735
 C        -1.734227        -0.508330         1.763880
 H         0.910338         0.566304         0.401237
 H        -2.062602         1.525569        -0.732478
 H        -2.423459        -0.160082        -0.633872
 H        -1.087289         2.577456         1.167690
 H        -0.715102         1.688304         2.768669
 H        -3.991400         0.998357         3.029748
 H        -4.590472         1.591026         1.495749
 H        -3.167897        -2.254466         2.190425
 H        -3.052156        -1.785609         0.517403
 H        -1.401163        -0.504562         2.811283
