19
Iteration:  2735charge 0 multiplicity 1
 O         0.483818        -0.103462         0.476904
 C        -0.802944         0.295073         0.905928
 C        -1.985045         0.728492        -0.042061
 C        -2.470967         0.946817         1.519386
 C        -1.111975         1.559712         1.844729
 C        -3.847292         0.877254         1.969778
 O        -4.246585        -0.504794         1.559306
 C        -3.008843        -1.430475         1.408296
 C        -1.855595        -0.570220         1.751473
 H         1.018524         0.353448         1.262054
 H        -1.869963         1.824249        -0.467730
 H        -2.467245         0.078545        -0.774970
 H        -0.874670         2.534252         1.244941
 H        -0.913231         1.566810         2.895609
 H        -3.975044         1.079108         3.060091
 H        -4.597102         1.507798         1.446153
 H        -3.179186        -2.431783         1.945007
 H        -3.036389        -1.700499         0.338040
 H        -1.575294        -0.676440         2.777477
