19
Iteration:   431
 O         0.430022        -0.280612         0.546262
 C        -0.782354         0.302640         0.902111
 C        -1.937858         0.909470        -0.053400
 C        -2.503283         0.947222         1.444755
 C        -1.051838         1.479596         1.919046
 C        -3.979846         0.842034         1.832575
 O        -4.132644        -0.582098         1.840351
 C        -3.002036        -1.284238         1.214637
 C        -1.949400        -0.439912         1.725378
 H         1.160490         0.334061         0.945349
 H        -1.725779         1.779921        -0.644035
 H        -2.275320         0.099557        -0.657834
 H        -0.862978         2.465846         1.530861
 H        -0.686121         1.180947         2.994605
 H        -4.195577         1.120630         2.898771
 H        -4.675325         1.294223         1.103365
 H        -2.986527        -2.382119         1.481235
 H        -3.037938        -1.297037         0.156806
 H        -1.662186        -0.594013         2.793305
