19
Iteration:  2582
 O         0.554779        -0.095843         0.624920
 C        -0.722025         0.333139         0.881869
 C        -1.984117         0.830336         0.003963
 C        -2.454351         0.925641         1.433954
 C        -1.044178         1.513235         1.886540
 C        -3.884176         0.798498         1.968152
 O        -4.280195        -0.559888         1.626034
 C        -3.163690        -1.349921         1.378598
 C        -1.852246        -0.532062         1.651767
 H         0.937916        -0.137313        -0.365188
 H        -1.802202         1.709578        -0.614618
 H        -2.566115         0.184657        -0.683351
 H        -1.014588         2.568674         1.657726
 H        -0.668878         1.390375         2.840199
 H        -3.992914         0.961965         3.039349
 H        -4.646829         1.406966         1.446630
 H        -3.227866        -2.388555         1.812122
 H        -3.173367        -1.475389         0.289521
 H        -1.644037        -0.669027         2.714977
