19
Iteration:  3394charge 0 multiplicity 1
 O         0.476385        -0.236551         0.584477
 C        -0.800121         0.389993         0.892906
 C        -2.013218         0.795477        -0.059078
 C        -2.462161         0.975371         1.386001
 C        -1.103907         1.605958         1.838455
 C        -3.917592         0.803474         1.807717
 O        -4.179704        -0.612569         1.850984
 C        -2.991432        -1.346287         1.407040
 C        -1.806344        -0.430885         1.729253
 H         0.600812        -0.529140        -0.440596
 H        -2.034155         1.664971        -0.772965
 H        -2.450641        -0.052805        -0.480475
 H        -0.917150         2.600855         1.359389
 H        -0.914159         1.673516         2.899982
 H        -4.157250         1.083175         2.858438
 H        -4.641447         1.301817         1.108258
 H        -3.147140        -2.256154         1.989420
 H        -3.053511        -1.667067         0.334185
 H        -1.554252        -0.465303         2.766557
