19
Iteration:  3031
 O         0.540203        -0.114986         0.494883
 C        -0.826473         0.244919         0.867419
 C        -2.050892         0.687859        -0.004976
 C        -2.507328         0.967289         1.428660
 C        -0.980507         1.562215         1.719750
 C        -3.978025         0.834206         1.958010
 O        -4.155233        -0.557558         1.562868
 C        -3.018391        -1.372549         1.524419
 C        -1.913180        -0.434645         1.846536
 H         1.086528         0.717148         0.529078
 H        -2.008905         1.555150        -0.558828
 H        -2.439877        -0.108712        -0.734276
 H        -0.833516         2.613657         1.247745
 H        -0.721514         1.590565         2.827701
 H        -4.047188         1.085837         3.022295
 H        -4.806439         1.397762         1.438349
 H        -3.101072        -2.142570         2.321384
 H        -3.064252        -1.953016         0.622162
 H        -1.588928        -0.584620         2.880153
