19
Iteration:   475charge 0 multiplicity 1
 O         0.508237        -0.085834         0.629957
 C        -0.790546         0.361674         0.933155
 C        -1.813029         0.835468        -0.066431
 C        -2.479349         0.943581         1.463619
 C        -1.071410         1.474018         1.874845
 C        -3.858947         0.863021         1.955293
 O        -4.198736        -0.524328         1.719586
 C        -3.168606        -1.476147         1.248726
 C        -1.969785        -0.548797         1.658463
 H         0.745799         0.015055        -0.243813
 H        -1.750804         1.844869        -0.481947
 H        -2.223766         0.156187        -0.740736
 H        -0.793997         2.434997         1.418804
 H        -0.839886         1.307324         3.029319
 H        -3.919640         1.123792         3.017741
 H        -4.558444         1.410138         1.327255
 H        -3.409227        -2.361685         1.916754
 H        -3.373054        -1.743469         0.228242
 H        -1.671362        -0.571589         2.735359
