19
Iteration:  2625charge 0 multiplicity 1
 O         0.400657        -0.158486         0.396882
 C        -0.878176         0.326261         0.962160
 C        -1.993853         0.874420         0.048141
 C        -2.416567         0.884225         1.521781
 C        -1.068387         1.531604         1.875995
 C        -3.877291         0.778462         1.897265
 O        -4.163959        -0.527965         1.465483
 C        -3.045181        -1.335970         1.418246
 C        -1.867579        -0.493892         1.844236
 H         1.061490         0.126996         1.009973
 H        -1.590005         1.737182        -0.596129
 H        -2.493272         0.058391        -0.573487
 H        -0.680278         2.424939         1.425540
 H        -0.877844         1.491039         2.922480
 H        -3.878752         0.849738         2.996790
 H        -4.554925         1.566086         1.534749
 H        -3.235258        -2.300962         1.962085
 H        -2.883281        -1.820582         0.423908
 H        -1.561892        -0.644297         2.874349
