19
Iteration:  2140charge 0 multiplicity 1
 O         0.516264         0.017656         0.452448
 C        -0.774063         0.279400         0.936297
 C        -1.896466         0.825217         0.007499
 C        -2.449925         0.903060         1.490631
 C        -1.027869         1.427590         1.946576
 C        -3.867012         0.853213         1.909007
 O        -4.276005        -0.544600         1.678398
 C        -3.189255        -1.316909         1.235217
 C        -1.905735        -0.586897         1.732496
 H         1.067108        -0.375573         1.126763
 H        -1.774184         1.811567        -0.478839
 H        -2.467890         0.125236        -0.670110
 H        -0.763053         2.376779         1.584158
 H        -0.560281         1.092317         2.926186
 H        -4.048206         1.040693         2.983721
 H        -4.555430         1.522000         1.396218
 H        -3.154579        -2.289163         1.625319
 H        -3.207780        -1.518493         0.121213
 H        -1.723672        -0.678676         2.799141
