19
Iteration:  3537
 O         0.400926        -0.193672         0.605239
 C        -0.833717         0.372497         0.808864
 C        -2.033384         0.826626        -0.044067
 C        -2.462523         0.863395         1.526555
 C        -1.097629         1.552871         1.755035
 C        -3.823900         0.816687         1.905955
 O        -4.232412        -0.543950         1.606459
 C        -2.973546        -1.394527         1.502056
 C        -1.815434        -0.490531         1.762477
 H         1.101883         0.478812         0.087190
 H        -2.155175         1.919388        -0.486550
 H        -2.479322         0.104724        -0.688786
 H        -0.997864         2.540014         1.256039
 H        -0.726837         1.560123         2.778022
 H        -3.919334         1.098932         2.996180
 H        -4.357753         1.572205         1.270310
 H        -3.129526        -2.219128         2.224930
 H        -2.836175        -1.810258         0.471747
 H        -1.385448        -0.728444         2.708037
