19
Iteration:  3690
 O         0.404786        -0.180002         0.489573
 C        -0.771332         0.366534         0.886572
 C        -1.848965         0.685684        -0.080515
 C        -2.455522         0.901292         1.408374
 C        -1.206688         1.598665         1.828875
 C        -3.920962         0.834612         1.911762
 O        -4.212846        -0.587628         1.889177
 C        -3.041574        -1.305253         1.350179
 C        -1.802631        -0.463951         1.674811
 H         1.115719         0.349306         1.109348
 H        -1.629367         1.619318        -0.593932
 H        -2.244810         0.010040        -0.865579
 H        -1.166137         2.616005         1.534103
 H        -0.769423         1.492207         2.830458
 H        -4.050326         1.207956         2.918839
 H        -4.582793         1.411296         1.197094
 H        -3.041751        -2.301302         1.719228
 H        -3.152853        -1.414289         0.261932
 H        -1.645800        -0.838715         2.675878
