19
Iteration:  3269charge 0 multiplicity 1
 O         0.391055        -0.294691         0.461501
 C        -0.791008         0.367859         0.882476
 C        -1.991977         0.779749         0.049337
 C        -2.515455         1.024835         1.512463
 C        -0.945221         1.672599         1.729945
 C        -4.118901         0.725455         1.880768
 O        -4.226253        -0.650567         1.487346
 C        -2.854669        -1.330676         1.588948
 C        -1.781501        -0.326039         1.950211
 H         0.384605        -0.167058        -0.563870
 H        -1.706239         1.689526        -0.554843
 H        -2.526634         0.042669        -0.728543
 H        -0.563366         2.507646         1.185368
 H        -0.576991         1.459407         2.724510
 H        -4.321125         0.965151         2.984288
 H        -4.778183         1.330825         1.250587
 H        -3.143696        -1.921013         2.429650
 H        -2.840853        -1.917651         0.642034
 H        -1.247502        -0.547663         2.924661
