19
Iteration:  2794
 O         0.471605        -0.215486         0.523533
 C        -0.790433         0.354092         0.884774
 C        -1.842801         0.912871        -0.045584
 C        -2.477998         1.003427         1.474194
 C        -1.158905         1.558276         1.889360
 C        -3.930292         0.772997         1.740213
 O        -4.228280        -0.648509         1.824606
 C        -3.034496        -1.341865         1.392461
 C        -1.818779        -0.446593         1.750483
 H         0.287783        -0.836044        -0.158942
 H        -1.678941         1.909663        -0.355846
 H        -2.355659         0.235932        -0.790129
 H        -1.013827         2.501022         1.408146
 H        -0.809444         1.453877         2.969673
 H        -4.062446         1.160751         2.742254
 H        -4.633763         1.220647         1.022137
 H        -2.945744        -2.240042         2.023370
 H        -3.123728        -1.472963         0.308052
 H        -1.575584        -0.582405         2.843322
