19
Iteration:  3105
 O         0.359979        -0.254705         0.633491
 C        -0.870501         0.328855         0.877851
 C        -1.875799         0.885637        -0.185558
 C        -2.488207         0.966797         1.396823
 C        -0.980987         1.660690         1.828825
 C        -4.021255         0.766368         1.721062
 O        -4.127412        -0.694952         1.952258
 C        -2.982257        -1.378346         1.433104
 C        -1.899099        -0.380626         1.782538
 H         0.977275         0.067073        -0.212260
 H        -1.813563         1.921780        -0.640232
 H        -2.382088         0.206524        -0.884733
 H        -0.555663         2.505892         1.233035
 H        -0.658273         1.401796         2.826119
 H        -4.209457         1.182509         2.724395
 H        -4.756462         1.193508         1.056818
 H        -2.976275        -2.402356         1.772026
 H        -3.021005        -1.418204         0.274295
 H        -1.577677        -0.379355         2.846571
