19
Iteration:  4158charge 0 multiplicity 1
 O         0.442261        -0.085597         0.345852
 C        -0.863991         0.303385         0.906031
 C        -2.017841         0.737345        -0.031866
 C        -2.479927         0.961935         1.462937
 C        -1.013275         1.611391         1.808000
 C        -3.979137         0.741958         1.867674
 O        -4.252940        -0.636870         1.497376
 C        -2.930041        -1.309586         1.673888
 C        -1.814589        -0.370250         1.908276
 H         0.751485        -0.968415         0.820840
 H        -1.774540         1.625743        -0.591448
 H        -2.310983        -0.090527        -0.728557
 H        -0.887166         2.616426         1.405973
 H        -0.547766         1.449712         2.776930
 H        -3.989539         1.095652         2.890939
 H        -4.628542         1.293712         1.227608
 H        -2.999876        -1.995738         2.488265
 H        -2.614136        -1.804839         0.722425
 H        -1.515677        -0.484991         2.947933
