19
Iteration:  4974
 O         0.324960        -0.351019         0.629125
 C        -0.786090         0.430749         0.914205
 C        -1.971616         0.849802        -0.048645
 C        -2.523217         1.050357         1.309612
 C        -1.110073         1.636857         1.800662
 C        -3.805003         0.739486         1.954893
 O        -4.172455        -0.622497         1.558825
 C        -2.932748        -1.418007         1.519887
 C        -1.851607        -0.343397         1.693126
 H         0.909093        -0.016755        -0.013206
 H        -1.822268         1.835617        -0.527558
 H        -2.683618         0.058881        -0.483391
 H        -0.767404         2.621671         1.555707
 H        -0.882956         1.410513         2.861425
 H        -3.847670         0.836915         3.012678
 H        -4.702628         1.300603         1.672208
 H        -2.834164        -2.125284         2.400368
 H        -2.945154        -1.995808         0.556955
 H        -1.766970        -0.418032         2.830367
