19
Iteration:  2445
 O         0.514986         0.005355         0.533777
 C        -0.782477         0.247344         0.970880
 C        -1.865266         0.837439         0.009587
 C        -2.379708         0.877901         1.531817
 C        -1.131071         1.542067         1.900829
 C        -3.836861         0.839905         1.971512
 O        -4.340644        -0.555633         1.626627
 C        -3.157938        -1.353575         1.196571
 C        -1.823048        -0.577721         1.729993
 H         0.477992        -0.779074        -0.014276
 H        -1.743582         1.758407        -0.617794
 H        -2.402525         0.217676        -0.666159
 H        -0.868351         2.501118         1.503304
 H        -0.774203         1.422946         2.908839
 H        -3.826809         1.023699         3.064133
 H        -4.447797         1.607472         1.476592
 H        -3.328709        -2.279616         1.769888
 H        -3.163405        -1.534570         0.085982
 H        -1.660487        -0.802801         2.796956
