19
Iteration:   772
 O         0.445657        -0.041354         0.525726
 C        -0.838259         0.232064         0.941923
 C        -1.921509         0.917166        -0.000600
 C        -2.439577         0.965840         1.508778
 C        -1.006126         1.471616         1.953451
 C        -3.838198         0.874008         1.927462
 O        -4.247545        -0.552857         1.593841
 C        -3.089408        -1.370764         1.241164
 C        -1.931476        -0.628500         1.710584
 H         0.791958        -0.829815         0.622604
 H        -1.514883         1.835910        -0.299508
 H        -2.497444         0.327647        -0.774363
 H        -0.621019         2.438713         1.558112
 H        -0.768769         1.493008         2.986553
 H        -3.873087         0.996749         3.056515
 H        -4.573376         1.554686         1.386577
 H        -3.038988        -2.365151         1.791758
 H        -3.213644        -1.464126         0.145966
 H        -1.755145        -0.727792         2.820214
