19
Iteration:  4066
 O         0.428456        -0.284085         0.532947
 C        -0.800847         0.378812         0.870784
 C        -1.918334         0.816652        -0.106043
 C        -2.499544         0.914848         1.322472
 C        -1.227633         1.635976         1.752255
 C        -3.896889         0.818482         1.763609
 O        -4.157031        -0.614662         1.965994
 C        -2.951661        -1.372724         1.480614
 C        -1.857019        -0.435236         1.796208
 H         1.153404         0.279387         0.430968
 H        -1.782752         1.757728        -0.726851
 H        -2.340233         0.049636        -0.745956
 H        -1.205440         2.633289         1.277473
 H        -0.908900         1.588884         2.803375
 H        -3.992215         1.328843         2.718486
 H        -4.587651         1.138490         0.941451
 H        -2.934195        -2.333396         2.052788
 H        -3.091613        -1.409355         0.420197
 H        -1.497370        -0.459458         2.901115
