19
Iteration:  1450charge 0 multiplicity 1
 O         0.341594        -0.114092         0.358274
 C        -0.857501         0.211040         1.030093
 C        -1.937081         0.980788         0.131786
 C        -2.479844         0.985528         1.609899
 C        -0.911737         1.474865         1.914599
 C        -3.973944         0.720042         1.977723
 O        -4.177609        -0.519081         1.239646
 C        -3.035201        -1.304386         1.374981
 C        -1.808748        -0.504731         1.897819
 H         0.493217        -1.203953         0.484710
 H        -1.520996         1.951010        -0.101928
 H        -2.575573         0.611406        -0.733177
 H        -0.599341         2.528534         1.393897
 H        -0.540693         1.406280         2.916881
 H        -4.249009         0.597872         2.996571
 H        -4.456037         1.541958         1.563643
 H        -3.288257        -2.185038         1.968269
 H        -2.928497        -1.805154         0.382892
 H        -1.578366        -0.776693         2.908205
