19
Iteration:  1465
 O         0.355975        -0.147186         0.403386
 C        -0.859022         0.333494         0.905527
 C        -2.014710         0.970462         0.178136
 C        -2.396570         0.904312         1.695005
 C        -0.918053         1.457294         1.958235
 C        -3.912630         0.798256         1.906791
 O        -4.204125        -0.471019         1.200283
 C        -2.968296        -1.423757         1.399565
 C        -1.891765        -0.473933         1.883075
 H         0.263925        -1.020384         0.171495
 H        -1.899104         1.945835        -0.311869
 H        -2.560786         0.313359        -0.467279
 H        -0.651934         2.436023         1.494657
 H        -0.382029         1.244737         3.001959
 H        -4.144935         0.676088         2.999791
 H        -4.692348         1.463339         1.399007
 H        -3.243452        -2.218111         2.187481
 H        -2.729284        -1.803016         0.421590
 H        -1.523514        -0.644782         2.917786
