19
Iteration:  4174
 O         0.350212        -0.219519         0.285939
 C        -0.764539         0.341392         0.900548
 C        -1.984137         0.779137         0.079343
 C        -2.485440         0.999954         1.492519
 C        -1.074050         1.639853         1.796834
 C        -3.985089         0.770311         1.808960
 O        -4.160551        -0.634578         1.456950
 C        -2.903036        -1.398421         1.639560
 C        -1.798399        -0.302702         1.970276
 H         0.896938        -0.585089         0.899004
 H        -1.914282         1.708341        -0.549137
 H        -2.642519         0.074717        -0.423149
 H        -0.760387         2.544165         1.197569
 H        -0.914133         1.611645         2.906263
 H        -4.257670         0.688574         2.913327
 H        -4.725078         1.418329         1.219651
 H        -3.035481        -2.140729         2.499259
 H        -2.866812        -2.000683         0.699281
 H        -1.543294        -0.320405         3.082166
