19
Iteration:  4907charge 0 multiplicity 1
 O         0.502818        -0.100521         0.432773
 C        -0.766104         0.284730         0.945755
 C        -1.939735         0.724199        -0.027278
 C        -2.435201         0.951788         1.454324
 C        -1.096303         1.543125         1.862739
 C        -3.940052         0.911860         1.822826
 O        -4.244671        -0.590328         1.650911
 C        -3.036561        -1.459168         1.532726
 C        -1.890056        -0.450251         1.794336
 H         0.766037         0.657169        -0.216876
 H        -1.670499         1.645937        -0.688756
 H        -2.558509        -0.091232        -0.487810
 H        -0.750882         2.529255         1.560467
 H        -0.926435         1.352811         2.936520
 H        -4.134131         1.367656         2.779817
 H        -4.617259         1.476569         1.106524
 H        -3.046946        -2.296069         2.280589
 H        -3.017243        -1.849933         0.465217
 H        -1.591261        -0.532839         2.904938
