19
Iteration:  3375charge 0 multiplicity 1
 O         0.457497        -0.152577         0.678827
 C        -0.848134         0.286626         0.780742
 C        -2.043720         0.708835        -0.109481
 C        -2.448087         0.892986         1.489517
 C        -1.154739         1.562910         1.698738
 C        -3.881190         0.894997         1.937179
 O        -4.194183        -0.557251         1.737595
 C        -2.956714        -1.360354         1.415720
 C        -1.819666        -0.461291         1.764000
 H         1.011114         0.455830        -0.044070
 H        -1.894474         1.672999        -0.526591
 H        -2.508843         0.021465        -0.740896
 H        -0.963791         2.630335         1.474013
 H        -0.690362         1.358436         2.660680
 H        -3.923312         1.298593         2.921656
 H        -4.527223         1.496094         1.306310
 H        -2.993601        -2.301504         2.017337
 H        -3.239056        -1.692003         0.436705
 H        -1.324810        -0.599215         2.727652
