19
Iteration:   987
 O         0.435227        -0.192703         0.483544
 C        -0.788576         0.284593         0.946923
 C        -1.889427         0.880560         0.051941
 C        -2.460488         0.991717         1.478651
 C        -0.936807         1.470956         2.041628
 C        -3.946872         0.798581         1.852601
 O        -4.261648        -0.615817         1.693512
 C        -3.130938        -1.312498         1.214943
 C        -1.899006        -0.446639         1.662056
 H         1.099181         0.388394         0.442552
 H        -1.753888         1.910967        -0.280909
 H        -2.461589         0.255526        -0.716000
 H        -0.383757         2.293449         1.742175
 H        -0.746396         1.303474         3.153427
 H        -4.186822         1.173744         2.899855
 H        -4.446589         1.365604         1.123637
 H        -3.080533        -2.312885         1.622368
 H        -3.136089        -1.544613         0.098236
 H        -1.726693        -0.624833         2.701923
