19
Iteration:  1265
 O         0.379475        -0.078075         0.478336
 C        -0.813638         0.315352         0.951116
 C        -1.897377         0.898957         0.082735
 C        -2.400510         0.870794         1.547201
 C        -1.145054         1.445364         1.998733
 C        -3.802453         0.867004         1.827403
 O        -4.198971        -0.546812         1.696508
 C        -3.062492        -1.346794         1.143746
 C        -1.874611        -0.553863         1.672383
 H         0.435069        -0.881644         0.996360
 H        -1.666543         1.933726        -0.178933
 H        -2.097680         0.361553        -0.832424
 H        -0.814529         2.482268         1.757137
 H        -0.869748         1.277151         2.967540
 H        -4.004005         1.142686         2.935357
 H        -4.421890         1.563045         1.177460
 H        -3.260573        -2.377508         1.496583
 H        -3.216790        -1.432380         0.076246
 H        -1.683478        -0.743779         2.730028
