19
Iteration:  3770charge 0 multiplicity 1
 O         0.540386        -0.127244         0.455462
 C        -0.796772         0.271529         0.931888
 C        -1.916664         0.877168        -0.086499
 C        -2.487085         0.967112         1.325137
 C        -1.180069         1.595047         1.868608
 C        -3.880800         0.791121         1.739138
 O        -4.173521        -0.643894         1.937615
 C        -3.067261        -1.368215         1.423448
 C        -1.894712        -0.428580         1.846457
 H         0.246884        -0.652931        -0.371644
 H        -1.644802         1.838497        -0.513901
 H        -2.290200        -0.058744        -0.653362
 H        -0.801960         2.567259         1.468796
 H        -1.100400         1.299981         2.899437
 H        -4.015122         1.318871         2.733285
 H        -4.523950         1.228369         0.916269
 H        -3.082257        -2.348154         2.011571
 H        -3.022772        -1.491167         0.355454
 H        -1.616083        -0.538310         2.902368
