19
Iteration:  4779
 O         0.364041        -0.225776         0.393501
 C        -0.845135         0.324525         0.860991
 C        -1.930877         0.857529        -0.026634
 C        -2.466534         0.951395         1.437220
 C        -0.999485         1.500132         1.875073
 C        -4.014987         0.788097         1.860667
 O        -4.195655        -0.605251         1.503538
 C        -2.904805        -1.338351         1.583060
 C        -1.908475        -0.332737         1.875106
 H         1.281431        -0.121701         0.982096
 H        -1.727172         1.757958        -0.463536
 H        -2.550791         0.258562        -0.698752
 H        -0.895405         2.559168         1.613498
 H        -0.743559         1.220688         2.927813
 H        -3.954088         0.756046         2.968751
 H        -4.720049         1.432786         1.350702
 H        -2.971259        -2.113612         2.362280
 H        -2.676397        -1.881820         0.720546
 H        -1.566774        -0.294827         2.885993
