19
Iteration:  4734
 O         0.500100        -0.016012         0.339997
 C        -0.742950         0.380380         0.860940
 C        -2.007655         0.643398         0.056440
 C        -2.416794         0.725673         1.591533
 C        -1.179261         1.585632         1.808389
 C        -3.848877         0.850126         1.886887
 O        -4.274996        -0.456324         1.469681
 C        -3.114705        -1.338674         1.547359
 C        -1.776760        -0.519999         1.878429
 H         1.170236        -0.343319         1.125873
 H        -2.103404         1.567320        -0.476528
 H        -2.256822        -0.202643        -0.548348
 H        -1.140303         2.559592         1.271864
 H        -0.595992         1.557866         2.755232
 H        -4.282668         1.088696         2.879245
 H        -4.198999         1.467361         1.016524
 H        -3.218143        -2.011964         2.415317
 H        -3.136275        -2.012971         0.736628
 H        -1.462967        -0.737266         2.900158
