19
Iteration:  2007
 O         0.384545        -0.084543         0.403640
 C        -0.826023         0.327211         0.909759
 C        -1.966375         0.905220         0.032599
 C        -2.451005         0.870957         1.521602
 C        -1.106749         1.493233         1.994062
 C        -3.834681         0.889462         1.933063
 O        -4.196272        -0.458680         1.422427
 C        -3.054947        -1.455248         1.427810
 C        -1.812526        -0.577848         1.779566
 H         0.761984        -0.980862         0.830725
 H        -1.638813         1.839875        -0.429124
 H        -2.430414         0.148672        -0.676263
 H        -0.931131         2.561131         1.639777
 H        -0.865886         1.379749         3.003458
 H        -3.813817         0.864430         3.061957
 H        -4.566612         1.631991         1.583317
 H        -3.334590        -2.294140         2.023251
 H        -2.809322        -1.817674         0.396344
 H        -1.425548        -0.782093         2.757912
