19
Iteration:  2237charge 0 multiplicity 1
 O         0.395826        -0.126265         0.470372
 C        -0.792609         0.297540         0.941787
 C        -1.900206         0.953306         0.005205
 C        -2.393563         0.866364         1.522778
 C        -1.142705         1.495132         1.968806
 C        -3.849933         0.867705         1.881293
 O        -4.251425        -0.555199         1.756797
 C        -3.036592        -1.354826         1.171465
 C        -1.867711        -0.578081         1.693628
 H         0.734957        -0.744800         1.013409
 H        -1.713478         2.005788        -0.328294
 H        -2.343691         0.356550        -0.841154
 H        -0.848703         2.483827         1.576682
 H        -0.695309         1.361005         3.038703
 H        -4.147897         1.344234         2.836870
 H        -4.363179         1.369213         1.056359
 H        -3.154255        -2.299856         1.639714
 H        -3.013422        -1.420300         0.060933
 H        -1.634821        -0.832159         2.698582
