19
Iteration:  4418
 O         0.469402        -0.097551         0.501200
 C        -0.810725         0.336144         0.888643
 C        -2.107616         0.539895        -0.018310
 C        -2.433466         0.908459         1.555687
 C        -1.166300         1.634566         1.676555
 C        -3.852103         0.814593         1.985461
 O        -4.229750        -0.430382         1.442494
 C        -2.993852        -1.394847         1.526493
 C        -1.768621        -0.463357         1.818608
 H         1.229505         0.294477         1.077408
 H        -2.167480         1.437333        -0.684833
 H        -2.397561        -0.317081        -0.588577
 H        -0.876999         2.531941         1.097492
 H        -0.818735         1.484231         2.684502
 H        -3.990103         0.922838         3.102758
 H        -4.464291         1.561788         1.571358
 H        -2.982874        -2.009339         2.468151
 H        -3.059396        -2.090596         0.680550
 H        -1.383997        -0.583324         2.885448
