19
Iteration:  3164charge 0 multiplicity 1
 O         0.382234        -0.184295         0.492654
 C        -0.790414         0.343069         0.910774
 C        -1.870296         0.676002        -0.054910
 C        -2.479410         0.867084         1.377549
 C        -1.249207         1.566865         1.835591
 C        -3.913933         0.934519         1.743680
 O        -4.161184        -0.561815         1.887830
 C        -2.955471        -1.316950         1.469720
 C        -1.772455        -0.485305         1.721994
 H         0.789902         0.481930         0.068801
 H        -1.759530         1.614890        -0.444344
 H        -2.231584        -0.138113        -0.719916
 H        -1.054664         2.643423         1.619924
 H        -1.096006         1.382587         2.962756
 H        -4.144461         1.334939         2.719051
 H        -4.515256         1.413303         0.925072
 H        -2.983839        -2.243453         2.113495
 H        -3.243307        -1.591239         0.453742
 H        -1.587325        -0.703156         2.771239
