19
Iteration:   259
 O         0.358662        -0.347100         0.408727
 C        -0.774614         0.355834         0.887056
 C        -2.005089         0.937313         0.122300
 C        -2.430373         1.012099         1.595494
 C        -0.962469         1.546204         1.879087
 C        -3.993578         0.837145         1.753560
 O        -4.256210        -0.675670         1.472335
 C        -2.942305        -1.379591         1.533397
 C        -1.852523        -0.374857         1.838586
 H         1.291703         0.155716         0.460456
 H        -1.939776         2.007242        -0.480096
 H        -2.645387         0.270586        -0.447279
 H        -0.860313         2.455499         1.327410
 H        -0.545060         1.565928         2.923510
 H        -4.340716         1.050416         2.694437
 H        -4.638402         1.378848         1.053687
 H        -3.011242        -2.116720         2.360198
 H        -2.721742        -1.791350         0.485222
 H        -1.369521        -0.546604         2.809577
