19
Iteration:  3382
 O         0.470615        -0.190595         0.671974
 C        -0.817131         0.347791         0.771880
 C        -2.054939         0.717369        -0.115412
 C        -2.484532         0.885914         1.456080
 C        -1.137539         1.622066         1.788850
 C        -3.890762         0.905456         1.901392
 O        -4.187352        -0.574973         1.772942
 C        -2.991211        -1.370084         1.434546
 C        -1.802344        -0.476374         1.747755
 H         0.809517         0.074806        -0.202182
 H        -1.938173         1.698561        -0.696357
 H        -2.569273        -0.023272        -0.744312
 H        -0.941212         2.668446         1.465285
 H        -0.653475         1.287865         2.711717
 H        -4.027248         1.332970         2.948732
 H        -4.587678         1.432791         1.196432
 H        -2.898506        -2.313883         1.962136
 H        -2.922435        -1.553355         0.328803
 H        -1.330239        -0.659255         2.706877
