19
Iteration:  2363charge 0 multiplicity 1
 O         0.280760        -0.204983         0.296279
 C        -0.891409         0.236805         0.936635
 C        -1.922355         0.907009         0.157273
 C        -2.441435         1.023058         1.623185
 C        -1.056457         1.531619         1.988608
 C        -3.902279         0.766974         1.941219
 O        -4.177481        -0.524127         1.293251
 C        -2.901705        -1.362567         1.379335
 C        -1.855312        -0.469710         1.856915
 H         0.821543        -0.598844         0.893772
 H        -1.579763         1.872224        -0.231065
 H        -2.543206         0.305868        -0.558306
 H        -0.771700         2.580003         1.611327
 H        -0.718228         1.488372         3.124460
 H        -3.925445         0.844082         3.055551
 H        -4.648914         1.413921         1.425960
 H        -3.260378        -2.227054         2.000171
 H        -2.646914        -1.707377         0.353103
 H        -1.401419        -0.616759         2.878415
