19
Iteration:   285charge 0 multiplicity 1
 O         0.339667        -0.273650         0.507439
 C        -0.868483         0.261849         0.933594
 C        -1.997180         0.864152        -0.016922
 C        -2.480870         1.022971         1.503696
 C        -0.960680         1.535779         1.864450
 C        -3.957337         0.806656         1.899820
 O        -4.171718        -0.558509         1.439868
 C        -2.904880        -1.383340         1.472430
 C        -1.864544        -0.423349         1.870488
 H         0.848362         0.423085         0.080767
 H        -1.604666         1.743339        -0.457534
 H        -2.630150         0.347728        -0.789405
 H        -0.785840         2.549383         1.361849
 H        -0.644846         1.457442         2.871582
 H        -4.100893         0.922184         3.011255
 H        -4.722154         1.395666         1.420994
 H        -3.073745        -2.089543         2.236296
 H        -2.760043        -1.776366         0.486737
 H        -1.476009        -0.596769         2.889247
