19
Iteration:  3306
 O         0.399604        -0.091081         0.404942
 C        -0.842369         0.285108         0.900170
 C        -2.073871         0.752165         0.006548
 C        -2.444277         0.997914         1.478388
 C        -1.115630         1.613574         1.789981
 C        -3.883585         0.877289         1.790122
 O        -4.131378        -0.540377         1.516864
 C        -2.982018        -1.476717         1.621739
 C        -1.736663        -0.493105         1.922277
 H         0.235495        -1.034763         0.219186
 H        -1.942859         1.725679        -0.475487
 H        -2.596251         0.021550        -0.614034
 H        -0.899600         2.662403         1.482489
 H        -0.916646         1.649930         2.888323
 H        -4.114834         1.055177         2.830980
 H        -4.551196         1.502372         1.144107
 H        -3.050631        -2.103782         2.517302
 H        -2.857462        -2.224538         0.826531
 H        -1.318166        -0.532591         2.915620
