19
Iteration:  3032
 O         0.534613        -0.113866         0.495465
 C        -0.816432         0.245062         0.867784
 C        -2.045116         0.687330         0.002479
 C        -2.503009         0.969776         1.431710
 C        -0.978307         1.558355         1.719325
 C        -3.977097         0.823331         1.948985
 O        -4.158860        -0.553960         1.573868
 C        -3.018518        -1.370404         1.520599
 C        -1.919295        -0.431597         1.837976
 H         1.088832         0.786600         0.532282
 H        -1.992747         1.560634        -0.570614
 H        -2.449550        -0.118255        -0.748214
 H        -0.835256         2.548292         1.198195
 H        -0.703523         1.616602         2.828702
 H        -4.052422         1.057849         3.019216
 H        -4.825551         1.404793         1.453501
 H        -3.121545        -2.161283         2.313647
 H        -3.054161        -1.941378         0.629190
 H        -1.635800        -0.568874         2.886635
