19
Iteration:  4277
 O         0.543375        -0.148079         0.586949
 C        -0.781541         0.299969         0.841812
 C        -1.979649         0.758388        -0.080259
 C        -2.456048         0.901474         1.344277
 C        -1.261117         1.609664         1.853621
 C        -3.850797         0.867976         1.865246
 O        -4.183365        -0.504500         1.829280
 C        -3.034928        -1.472975         1.469628
 C        -1.819028        -0.496854         1.675154
 H         0.979157         0.449206        -0.211499
 H        -1.946468         1.741347        -0.563284
 H        -2.298854        -0.063917        -0.705510
 H        -1.155291         2.631768         1.524816
 H        -1.175867         1.496284         2.904248
 H        -4.154588         1.307360         2.884426
 H        -4.540865         1.256239         1.121212
 H        -3.226079        -2.284335         2.144161
 H        -3.157124        -1.811372         0.461071
 H        -1.545559        -0.610282         2.758865
