19
Iteration:  3263charge 0 multiplicity 1
 O         0.404550        -0.326425         0.422399
 C        -0.814180         0.381944         0.948602
 C        -1.965363         0.760046         0.036794
 C        -2.500900         1.010086         1.477935
 C        -1.011516         1.704487         1.729144
 C        -4.067419         0.721668         1.917047
 O        -4.240264        -0.604915         1.479989
 C        -2.864423        -1.354023         1.595868
 C        -1.783093        -0.322417         1.904543
 H         0.568860        -0.113337        -0.420687
 H        -1.738487         1.616794        -0.562613
 H        -2.539823         0.025031        -0.446543
 H        -0.529095         2.602083         1.228559
 H        -0.619560         1.629123         2.794873
 H        -4.220003         0.918135         2.955935
 H        -4.858384         1.262695         1.351621
 H        -3.000158        -2.198258         2.360658
 H        -2.779372        -1.896517         0.648302
 H        -1.498493        -0.481934         2.933077
