19
Iteration:  4569charge 0 multiplicity 1
 O         0.523416         0.063494         0.576351
 C        -0.807699         0.247671         0.873358
 C        -1.943885         0.759436        -0.167178
 C        -2.435557         0.830261         1.273758
 C        -1.203102         1.492050         1.765838
 C        -3.845190         0.903675         1.873719
 O        -4.206778        -0.501054         1.854042
 C        -3.149729        -1.420855         1.524754
 C        -1.837359        -0.639719         1.670720
 H         1.014273         0.281991         1.284735
 H        -1.564168         1.726273        -0.553088
 H        -2.346947         0.071776        -0.852113
 H        -1.032587         2.570302         1.435173
 H        -0.755397         1.342039         2.786629
 H        -3.686366         1.174177         2.955431
 H        -4.541597         1.669739         1.369949
 H        -3.132983        -2.268550         2.259512
 H        -3.302172        -1.799325         0.511045
 H        -1.715498        -0.552484         2.737559
