19
Iteration:  4879
 O         0.504962        -0.038521         0.535207
 C        -0.757878         0.321861         0.880943
 C        -1.882259         0.935121        -0.100376
 C        -2.391232         0.794345         1.398094
 C        -1.125443         1.519220         1.847686
 C        -3.923191         0.825636         1.803827
 O        -4.290234        -0.580659         1.649487
 C        -3.149823        -1.404259         1.710222
 C        -1.808310        -0.563223         1.703114
 H         0.552729        -0.153901        -0.541767
 H        -1.733730         1.922157        -0.348709
 H        -2.412355         0.285674        -0.792988
 H        -0.828985         2.506237         1.452349
 H        -0.884200         1.348604         2.914304
 H        -3.958518         1.399547         2.767745
 H        -4.544211         1.429803         1.158174
 H        -3.127005        -2.071901         2.573337
 H        -3.216650        -1.969840         0.826997
 H        -1.489989        -0.650207         2.718932
