19
Iteration:   112
 O         0.360117        -0.289662         0.426071
 C        -0.794486         0.299085         0.950559
 C        -1.970629         0.917403         0.077888
 C        -2.448291         1.022262         1.504120
 C        -1.005177         1.656042         1.823103
 C        -3.982792         0.805077         1.630475
 O        -4.180939        -0.688205         1.792214
 C        -2.995405        -1.294267         1.391069
 C        -1.814978        -0.462163         1.856273
 H         0.765659        -0.705244         1.092526
 H        -1.740654         1.881417        -0.368492
 H        -2.592451         0.204275        -0.595768
 H        -0.756877         2.662278         1.309971
 H        -0.534973         1.624046         2.760914
 H        -4.398844         1.228778         2.454142
 H        -4.506532         1.086554         0.707115
 H        -3.037868        -2.380226         1.707163
 H        -2.969539        -1.414100         0.311884
 H        -1.620884        -0.581680         2.935140
