19
Iteration:   761
 O         0.426155        -0.014475         0.466315
 C        -0.849356         0.253412         0.980684
 C        -1.785687         0.872054         0.008347
 C        -2.420078         0.965591         1.457884
 C        -1.099995         1.485744         2.010424
 C        -3.876552         0.803648         1.912115
 O        -4.273121        -0.513438         1.667501
 C        -3.117949        -1.333292         1.243486
 C        -1.823210        -0.591165         1.688421
 H         0.507959        -0.993989         0.577727
 H        -1.331784         1.645040        -0.524925
 H        -2.419377         0.309475        -0.734199
 H        -0.682816         2.436449         1.642692
 H        -0.842413         1.132678         2.975127
 H        -4.051866         1.055366         2.998423
 H        -4.592417         1.490749         1.343228
 H        -3.430412        -2.314184         1.705017
 H        -3.091478        -1.556538         0.148121
 H        -1.507263        -0.932803         2.715412
