19
Iteration:  2830
 O         0.450537        -0.231195         0.562928
 C        -0.841591         0.328495         0.913933
 C        -1.943479         0.807201         0.004786
 C        -2.460253         1.110553         1.456132
 C        -1.099137         1.541750         1.886820
 C        -3.952626         0.765901         1.700517
 O        -4.129485        -0.622476         1.845537
 C        -3.022179        -1.321303         1.385356
 C        -1.889571        -0.490356         1.711065
 H         0.730685         0.339391        -0.097455
 H        -1.659500         1.666284        -0.608077
 H        -2.471264         0.165909        -0.684132
 H        -0.687047         2.451335         1.380263
 H        -0.662709         1.563948         2.930708
 H        -4.244992         1.156740         2.692952
 H        -4.633414         1.242313         0.998661
 H        -2.993987        -2.310469         1.733274
 H        -3.147837        -1.550982         0.287931
 H        -1.526488        -0.692323         2.745538
