19
Iteration:  2600charge 0 multiplicity 1
 O         0.529390        -0.136356         0.555319
 C        -0.817994         0.290803         0.897381
 C        -1.903963         0.807118        -0.035546
 C        -2.467016         0.908724         1.494378
 C        -1.130244         1.484995         1.869298
 C        -3.898210         0.815939         2.006418
 O        -4.279744        -0.487544         1.569558
 C        -3.047164        -1.376292         1.322753
 C        -1.865735        -0.480662         1.722735
 H         0.959558         0.684014         0.054546
 H        -1.956376         1.850005        -0.526041
 H        -2.323190        -0.047455        -0.705366
 H        -0.783226         2.449170         1.495785
 H        -0.793140         1.348934         2.997342
 H        -3.888109         0.969893         3.123996
 H        -4.533978         1.609855         1.601638
 H        -3.115168        -2.133307         2.090526
 H        -3.175061        -2.060777         0.436276
 H        -1.489966        -0.810486         2.705139
