19
Iteration:  1589
 O         0.420917        -0.291440         0.527261
 C        -0.802015         0.332690         0.908709
 C        -1.826393         0.995262         0.037960
 C        -2.477066         1.026340         1.485515
 C        -1.011778         1.510567         1.949155
 C        -4.014253         0.838002         1.841489
 O        -4.176209        -0.713601         1.876103
 C        -3.063117        -1.290231         1.166464
 C        -1.914570        -0.497178         1.625500
 H         1.140890         0.258483         0.497394
 H        -1.459850         1.949330        -0.371452
 H        -2.246828         0.382609        -0.836850
 H        -0.697400         2.501927         1.538621
 H        -0.871650         1.209882         3.053415
 H        -4.405101         1.254552         2.819824
 H        -4.575055         1.255391         0.974700
 H        -2.926130        -2.279672         1.507568
 H        -3.252153        -1.487224         0.056260
 H        -1.978795        -0.674347         2.743278
