19
Iteration:  2533
 O         0.468438        -0.229994         0.377024
 C        -0.779967         0.344948         0.910994
 C        -1.919916         0.907223         0.024413
 C        -2.451743         0.989395         1.527061
 C        -1.128742         1.579718         2.017541
 C        -3.907761         0.790764         1.754635
 O        -4.225069        -0.625580         1.783547
 C        -3.043523        -1.319054         1.237634
 C        -1.866041        -0.478036         1.763602
 H         0.813128        -0.624345         1.119922
 H        -1.707887         1.854232        -0.630374
 H        -2.430386         0.195469        -0.654251
 H        -0.619088         2.553833         1.797388
 H        -1.016455         1.317556         3.133020
 H        -4.099550         1.084219         2.818546
 H        -4.644917         1.331490         1.155468
 H        -3.066786        -2.367179         1.551119
 H        -3.056274        -1.427163         0.103308
 H        -1.559633        -0.722250         2.808085
