19
Iteration:  3732
 O         0.519017        -0.108116         0.527423
 C        -0.825197         0.327097         0.847738
 C        -1.946855         0.932462        -0.063793
 C        -2.486579         0.935459         1.424668
 C        -1.053581         1.521287         1.803088
 C        -3.951519         0.778478         1.677047
 O        -4.175398        -0.619090         2.045456
 C        -3.069354        -1.356482         1.408826
 C        -1.872260        -0.494431         1.685223
 H         0.727838        -0.894339         0.922339
 H        -1.745154         1.938990        -0.563657
 H        -2.362749         0.290288        -0.803335
 H        -0.842763         2.566889         1.535691
 H        -0.772133         1.337052         2.855786
 H        -4.391584         1.399539         2.431496
 H        -4.533116         0.979063         0.776201
 H        -3.026078        -2.317074         1.868300
 H        -3.332943        -1.547922         0.303823
 H        -1.417694        -0.555544         2.729822
