19
Iteration:  2547charge 0 multiplicity 1
 O         0.414821        -0.080406         0.485114
 C        -0.813929         0.246832         0.927432
 C        -1.880568         0.882428         0.030713
 C        -2.471637         0.970006         1.431484
 C        -1.079030         1.510264         1.933644
 C        -3.956259         0.829801         1.890893
 O        -4.151546        -0.593261         1.721143
 C        -3.062082        -1.331798         1.252163
 C        -1.833174        -0.512458         1.731159
 H         0.641870        -1.088916         0.804577
 H        -1.637489         1.949595        -0.309965
 H        -2.421839         0.112261        -0.632604
 H        -1.006108         2.470982         1.562405
 H        -0.662917         1.307311         2.943251
 H        -4.196299         1.225733         2.886085
 H        -4.542443         1.340750         1.117160
 H        -3.188938        -2.341897         1.664741
 H        -3.106050        -1.376856         0.119032
 H        -1.595732        -0.670436         2.779811
