19
Iteration:  3709charge 0 multiplicity 1
 O         0.513311        -0.109121         0.491461
 C        -0.829956         0.276879         0.919814
 C        -1.921041         0.858062        -0.065607
 C        -2.469570         0.942943         1.390410
 C        -1.045854         1.536043         1.760403
 C        -3.981210         0.813780         1.806274
 O        -4.148140        -0.652471         2.005896
 C        -3.082949        -1.358835         1.275987
 C        -1.932089        -0.425963         1.744709
 H         1.039741        -0.184275         1.434371
 H        -1.743685         1.796598        -0.678395
 H        -2.422994         0.166759        -0.657767
 H        -0.572991         2.387757         1.222937
 H        -0.785536         1.519881         2.822735
 H        -4.242912         1.284074         2.754234
 H        -4.666590         1.198885         1.067368
 H        -3.166199        -2.350514         1.712958
 H        -3.150457        -1.501500         0.144194
 H        -1.643774        -0.563455         2.846424
