19
Iteration:  3510charge 0 multiplicity 1
 O         0.547193        -0.141758         0.484683
 C        -0.787126         0.297042         0.911944
 C        -1.874456         0.662139        -0.092972
 C        -2.527387         1.058293         1.368893
 C        -1.151355         1.599768         1.778927
 C        -3.909781         0.816645         2.049144
 O        -4.218203        -0.566902         1.755913
 C        -3.080401        -1.399777         1.371738
 C        -1.909297        -0.486051         1.744065
 H         1.252052         0.692523         0.608915
 H        -1.678561         1.446834        -0.834600
 H        -2.390750        -0.090460        -0.801191
 H        -0.852701         2.627245         1.490457
 H        -0.957208         1.610296         2.883794
 H        -3.676973         1.065746         3.110418
 H        -4.654339         1.491976         1.650885
 H        -3.320905        -2.342475         1.890709
 H        -3.062207        -1.727436         0.299313
 H        -1.711969        -0.730021         2.874205
