19
Iteration:  3386
 O         0.474856        -0.214478         0.653018
 C        -0.817241         0.378941         0.802523
 C        -2.048374         0.742974        -0.111005
 C        -2.486464         0.905119         1.424621
 C        -1.120598         1.628600         1.824875
 C        -3.896846         0.890230         1.874355
 O        -4.187252        -0.583736         1.802959
 C        -3.004139        -1.367271         1.424368
 C        -1.789933        -0.470172         1.730203
 H         0.790920        -0.111911        -0.362249
 H        -2.007519         1.601756        -0.729146
 H        -2.549622        -0.018181        -0.639884
 H        -0.944848         2.640637         1.418921
 H        -0.712105         1.398651         2.807192
 H        -4.100271         1.176647         2.875910
 H        -4.589716         1.345191         1.176858
 H        -2.975762        -2.317786         1.994466
 H        -2.800477        -1.510831         0.394371
 H        -1.415329        -0.649290         2.745660
