19
Iteration:  1239charge 0 multiplicity 1
 O         0.532706        -0.120680         0.414167
 C        -0.754202         0.294954         0.965082
 C        -1.948864         0.911393         0.045767
 C        -2.445495         1.005953         1.555041
 C        -1.107073         1.435646         1.997995
 C        -3.888196         0.805042         1.955968
 O        -4.295633        -0.527608         1.509726
 C        -3.099018        -1.344858         1.285051
 C        -1.851884        -0.532804         1.683968
 H         0.788742        -0.763063         1.002319
 H        -1.757343         1.917778        -0.408953
 H        -2.354157         0.278864        -0.743733
 H        -0.623939         2.469875         1.827179
 H        -0.887625         1.135775         3.117065
 H        -4.096155         0.831606         3.012873
 H        -4.516139         1.523105         1.453878
 H        -3.232571        -2.278046         1.810907
 H        -3.138213        -1.585676         0.181672
 H        -1.505796        -0.769194         2.691214
