19
Iteration:  2848charge 0 multiplicity 1
 O         0.470760        -0.217672         0.520527
 C        -0.746487         0.340973         0.892937
 C        -1.902279         0.805262        -0.037281
 C        -2.439434         0.862161         1.462417
 C        -1.087278         1.607069         1.805260
 C        -3.962349         0.859460         1.820364
 O        -4.268460        -0.631243         1.863535
 C        -3.045967        -1.347366         1.287941
 C        -1.826460        -0.448118         1.794898
 H         1.046993         0.504302         0.473743
 H        -1.860623         1.778718        -0.529963
 H        -2.361221         0.103400        -0.859363
 H        -1.012634         2.591508         1.430076
 H        -0.847687         1.508969         2.923696
 H        -4.240941         1.398263         2.731681
 H        -4.576213         1.308520         0.982791
 H        -3.045634        -2.338229         1.850043
 H        -3.143411        -1.621331         0.230272
 H        -1.736507        -0.529129         2.916251
