19
Iteration:  2033charge 0 multiplicity 1
 O         0.330766        -0.189784         0.301571
 C        -0.799621         0.331965         0.938669
 C        -2.002999         0.842560         0.192335
 C        -2.448429         0.972843         1.658334
 C        -0.949558         1.532573         1.979341
 C        -3.950019         0.828679         1.900843
 O        -4.220959        -0.542636         1.321484
 C        -2.975285        -1.371635         1.338211
 C        -1.814777        -0.417102         1.840472
 H         0.812015        -0.868383         0.883765
 H        -1.681825         1.682005        -0.443302
 H        -2.697053         0.174882        -0.326961
 H        -0.847267         2.550491         1.746898
 H        -0.573870         1.332255         3.055974
 H        -4.308316         0.882166         2.952477
 H        -4.550893         1.499242         1.283006
 H        -3.111159        -2.200680         2.102486
 H        -2.719641        -1.883794         0.332733
 H        -1.460657        -0.794270         2.850811
