19
Iteration:   124
 O         0.347795        -0.233848         0.415358
 C        -0.812197         0.299442         1.006277
 C        -1.904991         0.887298         0.047883
 C        -2.433436         1.009282         1.498309
 C        -0.928975         1.682535         1.857998
 C        -3.991931         0.735849         1.726893
 O        -4.225510        -0.639543         1.787266
 C        -2.967630        -1.383839         1.317558
 C        -1.905909        -0.379986         1.804833
 H         0.737627        -1.092097         0.982278
 H        -1.538497         1.672027        -0.685089
 H        -2.510107         0.096840        -0.614670
 H        -0.761530         2.510172         1.110793
 H        -0.727777         1.930769         2.878780
 H        -4.438819         1.194790         2.577821
 H        -4.480701         1.185994         0.831323
 H        -2.903864        -2.253327         2.063197
 H        -3.030422        -1.622549         0.249619
 H        -1.630436        -0.568422         2.856180
