19
Iteration:  3727
 O         0.506967        -0.093376         0.530223
 C        -0.770434         0.308746         0.835246
 C        -1.988781         0.910357        -0.078261
 C        -2.501198         0.984568         1.393124
 C        -0.995435         1.547264         1.814813
 C        -3.953842         0.748504         1.683176
 O        -4.150207        -0.619267         2.018153
 C        -3.099337        -1.364219         1.409287
 C        -1.888624        -0.527007         1.720558
 H         0.899939        -0.909859         1.121366
 H        -1.649705         1.905941        -0.403878
 H        -2.588557         0.372304        -0.893308
 H        -0.917534         2.620744         1.512984
 H        -0.689272         1.313851         2.840063
 H        -4.339070         1.382446         2.540522
 H        -4.639872         0.953483         0.825951
 H        -3.021199        -2.426541         1.813680
 H        -3.415987        -1.363869         0.382312
 H        -1.635397        -0.457836         2.763557
