19
Iteration:  2910
 O         0.523875        -0.024612         0.484116
 C        -0.758153         0.340388         0.852827
 C        -1.944251         0.753146        -0.008071
 C        -2.467388         0.915221         1.418461
 C        -1.096593         1.503358         1.767358
 C        -3.918120         0.836091         1.929374
 O        -4.242433        -0.570522         1.618070
 C        -3.124049        -1.379569         1.482953
 C        -1.777301        -0.475570         1.846654
 H         0.597974        -0.953670         0.831567
 H        -1.877800         1.687567        -0.592290
 H        -2.346766        -0.096599        -0.604834
 H        -0.915492         2.524908         1.279798
 H        -0.964476         1.553897         2.802725
 H        -4.079701         1.013593         3.025545
 H        -4.659134         1.347000         1.305504
 H        -3.236083        -2.252899         2.119220
 H        -3.063480        -1.563072         0.418429
 H        -1.588322        -0.363204         2.903716
