19
Iteration:  2217
 O         0.436285        -0.248311         0.437379
 C        -0.760359         0.360068         0.879576
 C        -1.935807         0.980769         0.108527
 C        -2.466424         1.005035         1.546649
 C        -0.993058         1.457596         2.004762
 C        -4.031320         0.797399         1.737326
 O        -4.145034        -0.644024         1.795918
 C        -3.095101        -1.270290         1.196702
 C        -1.884634        -0.440654         1.661934
 H         0.687962        -0.896025         1.154445
 H        -1.630848         1.883330        -0.511944
 H        -2.406721         0.256479        -0.574243
 H        -0.732102         2.482521         1.898081
 H        -0.678856         1.215886         3.132318
 H        -4.259320         1.105303         2.786840
 H        -4.753952         1.169283         1.005830
 H        -3.022707        -2.243974         1.632388
 H        -3.034523        -1.325133         0.086868
 H        -1.494512        -0.761575         2.633656
