19
Iteration:  4077
 O         0.427928        -0.221657         0.565843
 C        -0.764236         0.319538         0.923362
 C        -1.894236         0.732126        -0.083936
 C        -2.487009         0.958617         1.296017
 C        -1.161217         1.676493         1.664161
 C        -3.872986         0.821467         1.831822
 O        -4.165660        -0.671545         1.958171
 C        -3.034144        -1.391655         1.410858
 C        -1.901937        -0.373300         1.773782
 H         0.930178         0.643652         0.202744
 H        -1.658435         1.714222        -0.614882
 H        -2.442759         0.003102        -0.663353
 H        -0.747918         2.629459         1.271030
 H        -1.104717         1.706749         2.767942
 H        -3.892974         1.301220         2.811954
 H        -4.756628         1.322077         1.362225
 H        -3.034105        -2.393571         1.944219
 H        -3.072484        -1.801175         0.418496
 H        -1.692661        -0.478534         2.935299
