19
Iteration:   734charge 0 multiplicity 1
 O         0.609245        -0.123570         0.441173
 C        -0.719630         0.320845         0.956950
 C        -1.947183         0.933737         0.024279
 C        -2.437529         0.874023         1.463488
 C        -1.086875         1.505603         2.061075
 C        -3.898753         0.890746         1.828126
 O        -4.262676        -0.587099         1.766306
 C        -3.108875        -1.345556         1.206972
 C        -1.957751        -0.531065         1.680645
 H         0.433306        -1.110178         0.493479
 H        -1.637197         2.011983        -0.325415
 H        -2.590793         0.416543        -0.678521
 H        -0.765859         2.450349         1.614533
 H        -0.843817         0.985192         3.055124
 H        -4.192555         1.220119         2.868369
 H        -4.469497         1.424571         1.090784
 H        -3.284800        -2.307642         1.636428
 H        -3.065461        -1.464481         0.130304
 H        -1.907428        -0.745228         2.743473
