19
Iteration:  2400
 O         0.476647        -0.110303         0.465619
 C        -0.811816         0.340017         0.840160
 C        -1.986182         0.894728         0.132065
 C        -2.423585         0.973005         1.578828
 C        -1.033777         1.485373         1.978998
 C        -3.865422         0.777876         1.932399
 O        -4.310033        -0.528979         1.444206
 C        -3.039943        -1.382368         1.374510
 C        -1.841522        -0.484357         1.661350
 H         0.504619        -0.970087         0.838258
 H        -1.768781         1.747453        -0.488616
 H        -2.508726         0.257195        -0.530643
 H        -0.836927         2.544622         1.684237
 H        -0.798014         1.297553         2.969460
 H        -4.020328         0.756571         3.034092
 H        -4.498708         1.534663         1.455452
 H        -2.991765        -2.135082         2.195047
 H        -3.036666        -1.820473         0.360972
 H        -1.351552        -0.939316         2.536982
