19
Iteration:  1681
 O         0.526465        -0.123792         0.516530
 C        -0.794869         0.277268         0.883371
 C        -1.897673         0.851374         0.015525
 C        -2.474760         0.997844         1.502330
 C        -1.014126         1.441123         1.910144
 C        -3.921361         0.820585         2.003813
 O        -4.283856        -0.537017         1.544904
 C        -3.021991        -1.375619         1.285059
 C        -2.008365        -0.483925         1.797945
 H         0.832520         0.321463        -0.223458
 H        -1.560463         1.750333        -0.564072
 H        -2.417953         0.186323        -0.635491
 H        -0.585999         2.388722         1.620148
 H        -0.713441         1.122622         2.830413
 H        -3.949551         0.779767         3.124715
 H        -4.693879         1.498386         1.655494
 H        -3.114126        -2.288804         1.930062
 H        -2.987241        -1.719348         0.246285
 H        -1.763215        -0.523522         2.857663
