19
Iteration:  4059
 O         0.410022        -0.301392         0.527086
 C        -0.834863         0.352959         0.837881
 C        -1.949690         0.812633        -0.133463
 C        -2.460799         0.896839         1.360536
 C        -1.229446         1.638683         1.822973
 C        -3.999388         0.806123         1.732303
 O        -4.128327        -0.577934         1.968636
 C        -2.951692        -1.343742         1.516717
 C        -1.753936        -0.424439         1.756646
 H         1.306042         0.264371         0.526373
 H        -1.843323         1.776831        -0.560607
 H        -2.183025         0.001938        -0.897281
 H        -1.176117         2.560071         1.284404
 H        -0.837075         1.552826         2.833550
 H        -4.334571         1.306517         2.704127
 H        -4.524440         1.182513         0.870017
 H        -2.876319        -2.299638         2.025232
 H        -3.037790        -1.510667         0.376237
 H        -1.511047        -0.357407         2.798922
