19
Iteration:   732
 O         0.614576        -0.117755         0.452710
 C        -0.728514         0.301430         0.952407
 C        -1.957271         0.954922         0.022287
 C        -2.432900         0.904460         1.464279
 C        -1.078212         1.501638         2.056617
 C        -3.910027         0.878861         1.830422
 O        -4.259731        -0.587861         1.771750
 C        -3.119151        -1.356713         1.196710
 C        -1.950375        -0.543820         1.686686
 H         0.410782        -1.199368         0.510126
 H        -1.613317         2.005457        -0.275635
 H        -2.666004         0.401197        -0.638193
 H        -0.735736         2.498425         1.603286
 H        -0.820815         1.048356         2.986629
 H        -4.163913         1.206629         2.798102
 H        -4.447335         1.414748         1.028743
 H        -3.276672        -2.301434         1.654534
 H        -3.066139        -1.456753         0.085976
 H        -1.839741        -0.726192         2.749949
