19
Iteration:  1021charge 0 multiplicity 1
 O         0.425887        -0.224737         0.522467
 C        -0.771825         0.285396         0.896526
 C        -1.825393         0.951168         0.029149
 C        -2.427020         0.868353         1.504466
 C        -1.171974         1.501907         2.066678
 C        -3.869321         0.872401         1.846312
 O        -4.231629        -0.581875         1.727247
 C        -3.060568        -1.333865         1.210092
 C        -1.876439        -0.535446         1.693357
 H         0.556945         0.169554        -0.423894
 H        -1.653713         2.011303        -0.084397
 H        -2.221080         0.539915        -0.968490
 H        -0.832721         2.458769         1.666626
 H        -0.975791         1.285576         3.116027
 H        -4.164441         1.300703         2.820834
 H        -4.360028         1.413769         1.057564
 H        -3.315456        -2.288444         1.666395
 H        -3.152452        -1.278844         0.089677
 H        -1.623413        -0.750314         2.719365
