19
Iteration:  4097charge 0 multiplicity 1
 O         0.532354        -0.092828         0.665120
 C        -0.817776         0.326964         0.872301
 C        -1.895378         0.636772        -0.179357
 C        -2.575774         0.980936         1.373751
 C        -1.078705         1.577037         1.654470
 C        -3.920998         0.781960         1.993535
 O        -4.219613        -0.590196         1.847675
 C        -2.992310        -1.324401         1.440943
 C        -1.925094        -0.449620         1.763469
 H         0.747833         0.360098        -0.290055
 H        -1.641979         1.413319        -0.970988
 H        -2.268490        -0.259235        -0.591106
 H        -1.009887         2.538446         1.071664
 H        -0.503467         1.754748         2.584700
 H        -3.971509         1.173814         2.998625
 H        -4.789125         1.303236         1.489581
 H        -3.004738        -2.343669         1.881428
 H        -3.177430        -1.533931         0.399806
 H        -1.579213        -0.550138         2.812196
