19
Iteration:  1762charge 0 multiplicity 1
 O         0.284515        -0.241142         0.388617
 C        -0.917868         0.295458         0.985020
 C        -1.942276         0.933361         0.118360
 C        -2.420890         0.903800         1.582395
 C        -0.946580         1.524727         1.945887
 C        -3.912662         0.780585         1.928061
 O        -4.211629        -0.501547         1.298453
 C        -2.960179        -1.448383         1.397138
 C        -1.848066        -0.402371         1.904455
 H         0.609410         0.508726         0.039885
 H        -1.643222         1.797309        -0.505610
 H        -2.448604         0.179209        -0.579216
 H        -0.670956         2.425979         1.553631
 H        -0.393531         1.377512         2.942919
 H        -4.023499         0.753932         3.026159
 H        -4.584339         1.565032         1.465650
 H        -2.982228        -2.428566         2.056677
 H        -2.812966        -1.655186         0.315246
 H        -1.509341        -0.405695         2.950166
