19
Iteration:  2298charge 0 multiplicity 1
 O         0.465456        -0.084380         0.471732
 C        -0.787080         0.288007         0.871959
 C        -1.981295         0.899071         0.065260
 C        -2.422894         0.908411         1.533381
 C        -1.056106         1.458984         1.926268
 C        -3.837351         0.805441         1.995719
 O        -4.253978        -0.443139         1.445642
 C        -3.140505        -1.437135         1.354746
 C        -1.863580        -0.563335         1.714443
 H         1.171393         0.239664         1.055707
 H        -1.916114         1.915067        -0.257216
 H        -2.487093         0.204667        -0.627295
 H        -0.674823         2.447142         1.524438
 H        -0.689274         1.150705         2.925218
 H        -3.949302         0.911344         3.100875
 H        -4.591019         1.493074         1.533399
 H        -3.281360        -2.352498         2.014631
 H        -3.081377        -1.870942         0.326553
 H        -1.488498        -0.721762         2.774464
