19
Iteration:  3272charge 0 multiplicity 1
 O         0.380029        -0.270228         0.467664
 C        -0.789655         0.341075         0.860236
 C        -2.006970         0.793676         0.037584
 C        -2.515074         1.028998         1.535340
 C        -0.920086         1.642950         1.726580
 C        -4.120986         0.736246         1.860036
 O        -4.211345        -0.664426         1.491728
 C        -2.868526        -1.322052         1.589196
 C        -1.782381        -0.331706         1.958928
 H         0.307384        -0.233360        -0.411616
 H        -1.771501         1.707937        -0.509369
 H        -2.477681         0.067272        -0.741560
 H        -0.641087         2.562066         1.181306
 H        -0.526054         1.459831         2.780042
 H        -4.335136         0.926716         2.920007
 H        -4.740735         1.371299         1.195961
 H        -3.111563        -1.884972         2.502701
 H        -2.809834        -1.922051         0.644958
 H        -1.216466        -0.488113         2.876806
