19
Iteration:   207
 O         0.535918        -0.081882         0.423017
 C        -0.784873         0.238687         0.911365
 C        -1.938222         0.684237        -0.033905
 C        -2.440902         0.942741         1.485940
 C        -1.052746         1.586315         1.768456
 C        -3.924739         0.811645         1.985045
 O        -4.375605        -0.535907         1.556232
 C        -3.026289        -1.355906         1.406862
 C        -1.901982        -0.444511         1.856731
 H         1.211767        -0.005426         1.310525
 H        -1.728066         1.610179        -0.543745
 H        -2.395661        -0.072648        -0.622868
 H        -0.657895         2.582521         1.355841
 H        -0.681027         1.446686         2.787271
 H        -3.886454         0.862037         3.201050
 H        -4.618655         1.564968         1.587989
 H        -3.088009        -2.226991         2.003123
 H        -3.011554        -1.747688         0.378843
 H        -1.546873        -0.400744         2.899135
