19
Iteration:   923charge 0 multiplicity 1
 O         0.418610        -0.137763         0.411413
 C        -0.758349         0.362178         0.981849
 C        -1.827283         0.810964         0.051833
 C        -2.452057         0.960803         1.497958
 C        -0.989668         1.480248         1.976948
 C        -3.883862         0.762710         2.005797
 O        -4.285924        -0.508184         1.494653
 C        -3.150074        -1.379035         1.276325
 C        -1.941576        -0.438579         1.725521
 H         1.082444        -0.006018         1.135105
 H        -1.788569         1.584785        -0.649613
 H        -2.287394         0.067686        -0.674602
 H        -0.467869         2.437818         1.591117
 H        -0.669057         1.173156         3.037273
 H        -3.912194         0.697998         3.042566
 H        -4.733806         1.363819         1.737848
 H        -3.154848        -2.394929         1.669206
 H        -3.190180        -1.527791         0.235455
 H        -1.639412        -0.481577         2.777017
