19
Iteration:  2282
 O         0.535001        -0.057465         0.445127
 C        -0.790636         0.383551         0.870604
 C        -1.882679         0.808188        -0.050362
 C        -2.462970         0.887036         1.546312
 C        -0.951848         1.410126         1.978360
 C        -3.925985         0.849143         2.013621
 O        -4.367607        -0.533266         1.527317
 C        -3.103284        -1.341803         1.311640
 C        -1.911642        -0.526289         1.701902
 H         1.014344         0.133886         1.165650
 H        -1.644037         1.639591        -0.831444
 H        -2.383923        -0.013068        -0.565178
 H        -0.922128         2.456648         1.807640
 H        -0.613911         1.130057         3.102860
 H        -3.842531         0.731684         3.124596
 H        -4.579990         1.685610         1.823099
 H        -3.233542        -2.146193         2.004446
 H        -3.246686        -1.687195         0.277295
 H        -1.547525        -0.827985         2.656505
