19
Iteration:  3390
 O         0.480795        -0.231614         0.607104
 C        -0.815893         0.397291         0.851923
 C        -2.026633         0.779335        -0.079407
 C        -2.472584         0.940609         1.395797
 C        -1.108625         1.619704         1.837289
 C        -3.904123         0.848281         1.834172
 O        -4.186064        -0.597349         1.833473
 C        -3.002090        -1.355321         1.421437
 C        -1.790249        -0.451469         1.718891
 H         0.679243        -0.351127        -0.266513
 H        -2.051652         1.637547        -0.793774
 H        -2.581975        -0.161983        -0.606273
 H        -0.943731         2.587946         1.389065
 H        -0.802269         1.563583         2.936063
 H        -4.166975         1.068877         2.903962
 H        -4.621224         1.302337         1.135315
 H        -3.101244        -2.281510         2.004083
 H        -2.853678        -1.583015         0.292186
 H        -1.491470        -0.573931         2.811342
