19
Iteration:  4682
 O         0.395571        -0.209763         0.491022
 C        -0.823724         0.341474         0.829876
 C        -1.919848         0.876906        -0.069788
 C        -2.488523         0.973250         1.429999
 C        -1.064702         1.622967         1.750488
 C        -3.930981         0.781764         1.939047
 O        -4.196988        -0.600504         1.583662
 C        -2.974594        -1.414616         1.541911
 C        -1.851007        -0.383259         1.851453
 H         0.539758        -0.971396         1.198931
 H        -1.696522         1.809579        -0.525173
 H        -2.347116         0.150877        -0.799594
 H        -0.879737         2.548437         1.214435
 H        -0.738627         1.648536         2.809868
 H        -3.922495         0.822915         3.056521
 H        -4.811381         1.281105         1.585883
 H        -3.003288        -2.295678         2.238847
 H        -2.874600        -1.750092         0.503544
 H        -1.471002        -0.571318         2.840119
