19
Iteration:  3561charge 0 multiplicity 1
 O         0.404803        -0.244892         0.472319
 C        -0.861334         0.248519         0.919000
 C        -2.061768         0.858024         0.084169
 C        -2.496492         1.007055         1.543364
 C        -0.999056         1.600106         1.820410
 C        -3.987685         0.776650         1.856527
 O        -4.120457        -0.605288         1.458783
 C        -2.923917        -1.363314         1.525385
 C        -1.825323        -0.358037         1.833999
 H         0.467949         0.097559        -0.359008
 H        -1.785071         1.734020        -0.506732
 H        -2.805454         0.142053        -0.412680
 H        -0.592891         2.442665         1.249552
 H        -0.595835         1.443680         2.864786
 H        -4.145540         0.988453         2.930786
 H        -4.644259         1.421631         1.206090
 H        -2.982337        -2.131225         2.392452
 H        -2.878350        -1.877744         0.550408
 H        -1.386806        -0.603266         2.794446
