19
Iteration:  3904charge 0 multiplicity 1
 O         0.327223        -0.073304         0.392744
 C        -0.889298         0.312733         0.942688
 C        -2.031343         0.612758        -0.050862
 C        -2.472134         0.950357         1.594307
 C        -1.151627         1.638371         1.773162
 C        -3.874529         0.880132         1.788141
 O        -4.109107        -0.536525         1.548493
 C        -2.892137        -1.412407         1.584009
 C        -1.755401        -0.471045         1.868659
 H         0.511647        -0.955742         0.554422
 H        -1.877180         1.634556        -0.508825
 H        -2.451869        -0.143065        -0.644651
 H        -1.019287         2.606245         1.314532
 H        -0.752473         1.607501         2.802589
 H        -4.070578         1.130199         2.870423
 H        -4.395729         1.393210         0.988175
 H        -3.050683        -1.907513         2.587351
 H        -2.881493        -1.977819         0.672667
 H        -1.371433        -0.469300         2.898572
