19
Iteration:   586charge 0 multiplicity 1
 O         0.284684        -0.256411         0.398054
 C        -0.870222         0.314769         0.974414
 C        -1.919369         0.874527         0.125189
 C        -2.435968         0.946184         1.577788
 C        -0.996792         1.559475         1.920358
 C        -3.827340         0.698865         1.953893
 O        -4.205429        -0.472175         1.323958
 C        -3.032737        -1.352372         1.368520
 C        -1.854481        -0.461333         1.797255
 H         1.132072         0.381693         0.656891
 H        -1.660571         1.802019        -0.389331
 H        -2.425795         0.136891        -0.511490
 H        -0.674757         2.636196         1.604223
 H        -0.896121         1.543886         3.008083
 H        -3.975619         0.559854         2.975894
 H        -4.478983         1.492919         1.535987
 H        -3.067652        -2.104375         2.230565
 H        -2.903217        -1.854003         0.405494
 H        -1.748094        -0.616557         2.909268
