19
Iteration:  3662
 O         0.485803        -0.192092         0.473546
 C        -0.763486         0.300341         0.929063
 C        -1.995280         0.785888        -0.003384
 C        -2.465749         0.975919         1.382234
 C        -1.149813         1.562156         1.790166
 C        -3.834472         0.830781         1.955828
 O        -4.224689        -0.565357         1.640042
 C        -3.006192        -1.417242         1.466686
 C        -1.906560        -0.448696         1.758581
 H         1.060236         0.671975         0.492214
 H        -1.792795         1.770582        -0.452220
 H        -2.513554         0.024625        -0.717296
 H        -0.980246         2.548812         1.239432
 H        -0.869663         1.555191         2.877358
 H        -3.896221         1.041874         3.060415
 H        -4.600186         1.477858         1.525603
 H        -3.059973        -2.370285         2.148897
 H        -3.003160        -1.747579         0.399398
 H        -1.729671        -0.643983         2.858303
