19
Iteration:  2504
 O         0.332731        -0.268460         0.461613
 C        -0.823663         0.323608         0.938082
 C        -1.820337         1.045060         0.034883
 C        -2.497544         0.993640         1.505492
 C        -1.080704         1.506606         1.929383
 C        -3.970754         0.780446         1.745305
 O        -4.148571        -0.598473         1.771667
 C        -3.047827        -1.377644         1.273459
 C        -1.833305        -0.517257         1.743026
 H         1.032102         0.448372         0.570479
 H        -1.465062         2.049632        -0.232722
 H        -2.263233         0.293354        -0.681289
 H        -0.645789         2.409385         1.604775
 H        -0.846050         1.264325         2.969307
 H        -4.143806         1.090890         2.790103
 H        -4.717363         1.288425         1.109414
 H        -3.150223        -2.343345         1.762079
 H        -3.005505        -1.615459         0.193145
 H        -1.523811        -0.788495         2.752224
