19
Iteration:  1222charge 0 multiplicity 1
 O         0.456375        -0.101118         0.422421
 C        -0.772783         0.324053         0.923573
 C        -1.878256         0.951184         0.094795
 C        -2.432534         0.891243         1.521180
 C        -0.875947         1.445830         1.967709
 C        -3.934734         0.738451         1.970464
 O        -4.315124        -0.516529         1.397819
 C        -3.122353        -1.371012         1.290703
 C        -1.980049        -0.455730         1.782156
 H         0.884516        -0.457240         1.106170
 H        -1.733847         1.941055        -0.329442
 H        -2.487951         0.285354        -0.527699
 H        -0.730949         2.469430         1.655997
 H        -0.488126         1.303734         2.917612
 H        -3.889882         0.686097         3.116123
 H        -4.731113         1.505380         1.725934
 H        -3.128298        -2.284094         1.979134
 H        -2.931850        -1.879400         0.360499
 H        -1.733344        -0.684327         2.850103
