19
Iteration:   674charge 0 multiplicity 1
 O         0.545823        -0.234727         0.547471
 C        -0.761502         0.264021         0.937357
 C        -1.836998         0.931931         0.086089
 C        -2.466644         0.960631         1.431046
 C        -1.203292         1.502896         1.996756
 C        -3.894852         0.829044         1.894926
 O        -4.198931        -0.615369         1.743144
 C        -3.122584        -1.248409         1.229282
 C        -1.923014        -0.480454         1.595057
 H         0.460070        -0.474986        -0.320464
 H        -1.685935         1.851582        -0.420429
 H        -2.323244         0.264570        -0.699450
 H        -0.718788         2.390168         1.647104
 H        -1.049142         1.506678         3.024244
 H        -3.959582         1.099288         2.935953
 H        -4.642879         1.490329         1.384609
 H        -3.096469        -2.334722         1.616814
 H        -3.133120        -1.385203         0.101571
 H        -1.557057        -0.639872         2.646940
