19
Iteration:  1993charge 0 multiplicity 1
 O         0.523183        -0.055866         0.428420
 C        -0.780303         0.279766         0.916500
 C        -1.894317         0.884048         0.052963
 C        -2.418606         0.979444         1.489704
 C        -1.076334         1.501414         1.888399
 C        -3.836971         0.802376         2.036468
 O        -4.345285        -0.522519         1.475440
 C        -3.096450        -1.459298         1.349011
 C        -1.893160        -0.534335         1.743418
 H         0.808865        -0.768843         0.986630
 H        -1.742143         1.918482        -0.421688
 H        -2.510339         0.401908        -0.668172
 H        -0.831230         2.559800         1.523808
 H        -0.763367         1.298166         2.914217
 H        -3.889487         0.901252         3.132038
 H        -4.540571         1.496950         1.514775
 H        -3.109364        -2.167361         2.189531
 H        -3.335656        -1.863119         0.439998
 H        -1.645430        -0.673132         2.799129
