19
Iteration:   337charge 0 multiplicity 1
 O         0.564015        -0.088845         0.593084
 C        -0.827324         0.243259         0.894594
 C        -1.933616         0.762826         0.062985
 C        -2.481972         0.923082         1.513815
 C        -1.073919         1.528417         1.719479
 C        -3.876633         0.810101         2.009470
 O        -4.306400        -0.526900         1.533695
 C        -3.068664        -1.336441         1.387960
 C        -1.888779        -0.462066         1.788852
 H         0.745286        -0.127770        -0.268590
 H        -1.756270         1.769943        -0.610045
 H        -2.349017         0.047305        -0.735647
 H        -0.786735         2.510407         1.246513
 H        -0.721444         1.418214         2.720359
 H        -3.924701         0.883387         3.089526
 H        -4.482425         1.580043         1.540926
 H        -3.287827        -2.231306         2.009517
 H        -2.880465        -1.674313         0.267327
 H        -1.536297        -0.666586         2.795263
