19
Iteration:  3586
 O         0.252184        -0.292077         0.336924
 C        -0.766887         0.410165         0.938789
 C        -1.908881         0.776869         0.027635
 C        -2.427445         0.918884         1.551415
 C        -1.058339         1.731013         1.894750
 C        -3.946369         0.765281         1.901661
 O        -4.180279        -0.600402         1.314940
 C        -2.945195        -1.412600         1.564278
 C        -1.801423        -0.339053         2.027502
 H         0.126007        -0.117804        -0.543293
 H        -1.693355         1.630725        -0.547740
 H        -2.368493        -0.162276        -0.430485
 H        -0.890733         2.744987         1.456605
 H        -0.616755         1.406250         2.854202
 H        -4.002127         0.816230         2.996864
 H        -4.597416         1.500012         1.444117
 H        -3.146000        -2.189249         2.366458
 H        -2.819867        -1.853571         0.555257
 H        -1.554834        -0.417856         3.139541
