19
Iteration:  3228
 O         0.341679        -0.227024         0.587097
 C        -0.879210         0.318092         0.886988
 C        -2.016029         0.671531        -0.077164
 C        -2.481883         0.907861         1.420905
 C        -1.214259         1.678952         1.707815
 C        -3.841014         0.836333         1.971757
 O        -4.142837        -0.454209         1.566265
 C        -2.914015        -1.386979         1.523249
 C        -1.726945        -0.533252         1.822862
 H         0.952198         0.409188         0.285041
 H        -1.874973         1.581906        -0.636333
 H        -2.635015        -0.110203        -0.702732
 H        -0.996457         2.665662         1.244403
 H        -0.917342         1.525543         2.806348
 H        -3.844449         1.004436         3.045181
 H        -4.569055         1.489306         1.458937
 H        -2.856195        -2.183162         2.292235
 H        -2.908498        -1.694845         0.440160
 H        -1.321292        -0.417358         2.838770
