19
Iteration:  2632charge 0 multiplicity 1
 O         0.402925        -0.159956         0.380991
 C        -0.833261         0.278724         0.949334
 C        -1.978363         0.858048         0.063331
 C        -2.482009         0.933663         1.563920
 C        -1.051405         1.521099         1.872777
 C        -3.908293         0.768326         1.906253
 O        -4.154640        -0.534065         1.446969
 C        -3.009162        -1.335076         1.385682
 C        -1.869462        -0.436169         1.864248
 H         1.082985        -0.277277         0.986313
 H        -2.010187         1.829514        -0.488641
 H        -2.443994         0.059446        -0.585354
 H        -0.721395         2.452068         1.370696
 H        -0.708272         1.518410         3.018478
 H        -4.099731         0.830688         3.016731
 H        -4.550460         1.465434         1.349775
 H        -3.152186        -2.072074         2.174897
 H        -2.925481        -1.772548         0.349975
 H        -1.528896        -0.705064         2.884017
