19
Iteration:  1954charge 0 multiplicity 1
 O         0.452157        -0.118047         0.485703
 C        -0.803860         0.290106         0.913685
 C        -1.933636         0.850403        -0.020348
 C        -2.443522         0.943353         1.523071
 C        -1.129133         1.491447         1.902781
 C        -3.827492         0.848120         1.936240
 O        -4.293494        -0.540032         1.727560
 C        -3.021719        -1.364333         1.177772
 C        -1.883897        -0.537691         1.691917
 H         1.192615        -0.033834         1.274888
 H        -1.703925         1.826947        -0.354971
 H        -2.393778         0.105416        -0.722294
 H        -0.599879         2.432701         1.691153
 H        -0.864900         1.149109         2.907076
 H        -3.967377         1.068774         3.009401
 H        -4.414832         1.579201         1.392689
 H        -3.154653        -2.331843         1.651544
 H        -2.971456        -1.566424         0.030444
 H        -1.813769        -0.671088         2.805722
