19
Iteration:  3504charge 0 multiplicity 1
 O         0.562774        -0.119735         0.467224
 C        -0.796893         0.297302         0.910906
 C        -1.838958         0.664103        -0.133019
 C        -2.528993         1.014920         1.354760
 C        -1.168422         1.556790         1.778987
 C        -3.895109         0.832516         2.052009
 O        -4.228920        -0.581046         1.782744
 C        -3.039224        -1.392567         1.363476
 C        -2.003378        -0.455077         1.809796
 H         1.135824         0.652955         0.722596
 H        -1.614314         1.590227        -0.800883
 H        -2.284340        -0.109321        -0.687832
 H        -0.712796         2.461274         1.320757
 H        -0.970893         1.484152         2.840165
 H        -3.667787         1.084789         3.112073
 H        -4.688430         1.506513         1.654968
 H        -3.282309        -2.377759         1.775345
 H        -3.077654        -1.432061         0.255408
 H        -1.596621        -0.583258         2.769836
