19
Iteration:  1482charge 0 multiplicity 1
 O         0.409111        -0.183264         0.429989
 C        -0.788251         0.321616         0.946809
 C        -2.096636         0.859320         0.154928
 C        -2.418047         0.996576         1.644398
 C        -1.034224         1.502629         2.055350
 C        -3.909146         0.791288         1.923760
 O        -4.109662        -0.488948         1.270906
 C        -3.068756        -1.336530         1.358653
 C        -1.799130        -0.514658         1.740437
 H         0.146394        -0.745967        -0.199573
 H        -1.995856         1.815917        -0.363646
 H        -2.750612         0.106814        -0.375943
 H        -0.679206         2.577728         1.854680
 H        -0.677147         1.156078         2.945335
 H        -4.244720         0.869262         2.963572
 H        -4.321008         1.580529         1.352955
 H        -3.167866        -1.959362         2.213669
 H        -3.069075        -1.969872         0.422622
 H        -1.322370        -0.825587         2.673055
