19
Iteration:  3948
 O         0.539704        -0.062397         0.652870
 C        -0.830262         0.225861         0.845104
 C        -1.950976         0.724821        -0.161425
 C        -2.481939         0.946958         1.405681
 C        -1.075931         1.627382         1.589147
 C        -3.974441         0.804628         2.094354
 O        -4.261246        -0.609302         1.679542
 C        -2.965877        -1.354373         1.507941
 C        -1.902531        -0.416607         1.804722
 H         0.541639        -0.491443        -0.111830
 H        -1.606393         1.617786        -0.739937
 H        -2.454121         0.008109        -0.786087
 H        -0.794168         2.468649         0.992559
 H        -0.838617         1.788164         2.643005
 H        -4.050343         0.850758         3.210049
 H        -4.642900         1.370691         1.480335
 H        -2.749909        -2.113274         2.337325
 H        -2.989548        -1.751068         0.498095
 H        -1.356394        -0.417297         2.742662
