19
Iteration:  2253
 O         0.500916        -0.024114         0.416069
 C        -0.800663         0.272046         0.961374
 C        -1.854199         0.883106         0.060253
 C        -2.481945         0.884127         1.438634
 C        -1.076219         1.473385         1.936829
 C        -3.851436         0.894722         1.915834
 O        -4.238184        -0.540098         1.673592
 C        -3.133793        -1.373138         1.226446
 C        -1.925683        -0.607166         1.739324
 H         0.986141        -0.557299         1.082498
 H        -1.482083         1.840909        -0.353871
 H        -2.340919         0.224485        -0.630791
 H        -1.001530         2.452848         1.478418
 H        -0.939811         1.390583         3.029892
 H        -3.758337         0.952496         3.024156
 H        -4.617295         1.645957         1.644477
 H        -3.325294        -2.430455         1.603768
 H        -3.227976        -1.514996         0.107566
 H        -1.675373        -0.811601         2.831500
