19
Iteration:  3551charge 0 multiplicity 1
 O         0.420347        -0.213615         0.557551
 C        -0.888991         0.287216         0.822728
 C        -2.094879         0.877086        -0.001172
 C        -2.415112         0.961121         1.554000
 C        -1.055889         1.561888         1.761526
 C        -3.973703         0.854795         1.892851
 O        -4.136369        -0.562934         1.513614
 C        -2.920810        -1.423569         1.505360
 C        -1.785778        -0.475785         1.871857
 H         0.728734         0.184342        -0.175803
 H        -1.803602         1.782430        -0.471404
 H        -2.771384         0.324153        -0.748819
 H        -0.846010         2.595555         1.452309
 H        -0.493159         1.367075         2.725023
 H        -4.322916         1.014551         2.925971
 H        -4.665642         1.383640         1.184765
 H        -3.060296        -2.287263         2.267719
 H        -2.993141        -1.927274         0.536172
 H        -1.358554        -0.443719         2.884571
