19
Iteration:  4371
 O         0.414328        -0.179538         0.518265
 C        -0.807672         0.255480         0.882152
 C        -1.884917         0.826739        -0.058691
 C        -2.533925         0.949449         1.315098
 C        -1.116754         1.566749         1.817930
 C        -3.921803         0.842053         1.842103
 O        -4.197384        -0.602464         1.770881
 C        -2.964172        -1.382742         1.545811
 C        -1.829926        -0.445196         1.773787
 H         0.917601         0.487792         0.218528
 H        -1.720964         1.728967        -0.629482
 H        -2.373395         0.018325        -0.681027
 H        -1.032645         2.541382         1.254312
 H        -0.929819         1.579058         2.949630
 H        -4.115053         1.204334         2.845160
 H        -4.623862         1.408766         1.136964
 H        -3.083732        -2.334241         2.181221
 H        -2.939446        -1.759768         0.469402
 H        -1.526164        -0.434467         2.818992
