19
Iteration:  3534charge 0 multiplicity 1
 O         0.415154        -0.188484         0.595718
 C        -0.824442         0.382354         0.833045
 C        -2.019943         0.812336        -0.028951
 C        -2.435936         0.834500         1.496163
 C        -1.122620         1.565217         1.764514
 C        -3.823814         0.810871         1.914587
 O        -4.243988        -0.551386         1.621888
 C        -2.989922        -1.377394         1.492468
 C        -1.828887        -0.468896         1.735881
 H         0.977650         0.448736         0.238515
 H        -2.159049         1.835693        -0.563297
 H        -2.460338         0.069911        -0.676157
 H        -0.911284         2.525184         1.238757
 H        -0.735816         1.620571         2.768090
 H        -3.810346         1.096934         2.996005
 H        -4.342823         1.560848         1.337094
 H        -3.107317        -2.186536         2.158841
 H        -3.016575        -1.837866         0.451351
 H        -1.297034        -0.724045         2.683388
