19
Iteration:   951charge 0 multiplicity 1
 O         0.477233        -0.221975         0.529807
 C        -0.842920         0.219662         0.929791
 C        -1.964325         0.942019         0.017778
 C        -2.478479         0.865659         1.529887
 C        -1.115838         1.504684         1.915235
 C        -3.870801         0.854079         1.958601
 O        -4.211243        -0.491473         1.588002
 C        -3.071315        -1.302146         1.230712
 C        -1.806277        -0.558418         1.680475
 H         1.067161         0.181241         1.061264
 H        -1.692215         2.031781        -0.247605
 H        -2.526860         0.525544        -0.804340
 H        -0.736922         2.385106         1.446866
 H        -0.856417         1.349299         2.983278
 H        -4.121881         0.919869         3.106854
 H        -4.642919         1.502405         1.477585
 H        -3.049117        -2.260897         1.782232
 H        -3.114640        -1.443705         0.051440
 H        -1.450376        -0.802060         2.706450
