19
Iteration:   737charge 0 multiplicity 1
 O         0.588468        -0.128075         0.427296
 C        -0.711190         0.351479         0.957632
 C        -1.915720         0.911327         0.032389
 C        -2.446654         0.834423         1.468595
 C        -1.103173         1.486526         2.060967
 C        -3.881789         0.902765         1.831717
 O        -4.265196        -0.581266         1.753216
 C        -3.096609        -1.323604         1.224394
 C        -1.961056        -0.510166         1.674506
 H         0.506128        -1.017392         0.450722
 H        -1.731524         1.905444        -0.388900
 H        -2.431129         0.401196        -0.784134
 H        -0.808699         2.419412         1.694041
 H        -0.886184         1.014621         3.106932
 H        -4.200475         1.228482         2.920562
 H        -4.550821         1.468328         1.164225
 H        -3.265019        -2.372625         1.634485
 H        -3.113878        -1.467448         0.144834
 H        -1.954174        -0.772482         2.772276
