19
Iteration:  4643
 O         0.274977        -0.306334         0.388387
 C        -0.828558         0.327384         0.884188
 C        -1.905890         0.820540        -0.011579
 C        -2.470317         0.971411         1.457085
 C        -1.149205         1.687854         1.937467
 C        -3.971026         0.830887         1.703921
 O        -4.083534        -0.633005         1.763330
 C        -2.915310        -1.366310         1.428248
 C        -1.787348        -0.381436         1.865231
 H         0.711539        -0.759782         1.201555
 H        -1.803100         1.775617        -0.620959
 H        -2.467314         0.057763        -0.604190
 H        -0.953801         2.677988         1.492140
 H        -0.828500         1.649160         2.987129
 H        -4.163987         1.360297         2.650674
 H        -4.539178         1.202754         0.794971
 H        -3.084651        -2.351203         1.835795
 H        -2.904426        -1.640037         0.333334
 H        -1.364807        -0.345197         2.930537
