19
Iteration:  4434charge 0 multiplicity 1
 O         0.407228        -0.092088         0.419925
 C        -0.855738         0.267591         0.863674
 C        -2.009630         0.686017        -0.011396
 C        -2.443903         0.856526         1.463221
 C        -1.138143         1.633944         1.734561
 C        -3.864451         0.843064         1.948874
 O        -4.127951        -0.517758         1.402383
 C        -3.001389        -1.350953         1.665970
 C        -1.809088        -0.481752         1.892204
 H         0.785566        -0.134022         1.227402
 H        -1.823690         1.598313        -0.608128
 H        -2.708944        -0.066845        -0.475493
 H        -1.242997         2.588846         1.221589
 H        -0.708455         1.757134         2.755059
 H        -3.818352         0.838600         3.056207
 H        -4.603044         1.537446         1.416726
 H        -3.306606        -2.010569         2.471253
 H        -2.891728        -2.015796         0.789806
 H        -1.345884        -0.501796         2.889377
