19
Iteration:  4230
 O         0.508564        -0.225385         0.438263
 C        -0.832534         0.317634         0.949489
 C        -2.091273         0.726144        -0.029111
 C        -2.509122         0.992342         1.494062
 C        -1.010317         1.624242         1.732834
 C        -3.989830         0.784458         1.973597
 O        -4.142284        -0.578151         1.455659
 C        -2.949510        -1.374638         1.523530
 C        -1.909516        -0.353327         1.879226
 H         1.264595         0.487573         0.483418
 H        -1.926578         1.455835        -0.802409
 H        -2.812875        -0.114306        -0.237557
 H        -0.778731         2.483986         1.079468
 H        -0.490122         1.706424         2.737430
 H        -4.056821         0.622000         3.125866
 H        -4.771955         1.498937         1.610804
 H        -3.061019        -2.066016         2.439313
 H        -2.767084        -1.958032         0.623306
 H        -1.621690        -0.577555         2.946370
