19
Iteration:  2940
 O         0.389767        -0.165548         0.518496
 C        -0.853209         0.336051         0.880977
 C        -1.996317         0.757441         0.051279
 C        -2.446398         1.019462         1.523150
 C        -1.079957         1.644752         1.812359
 C        -3.903257         0.851004         1.864846
 O        -4.171933        -0.548049         1.503068
 C        -2.907781        -1.486625         1.495684
 C        -1.810512        -0.463920         1.853309
 H         0.184708        -0.778159        -0.127929
 H        -1.938950         1.546571        -0.708576
 H        -2.492903        -0.041286        -0.329025
 H        -0.988682         2.622582         1.202952
 H        -0.770602         1.750484         2.851507
 H        -4.204252         1.066995         2.897019
 H        -4.603257         1.355993         1.224931
 H        -3.021327        -2.338568         2.128334
 H        -2.893831        -1.869755         0.440425
 H        -1.448191        -0.504310         2.901022
