19
Iteration:   294
 O         0.305903        -0.243627         0.554649
 C        -0.872410         0.304499         0.906921
 C        -1.936935         0.816806         0.018860
 C        -2.420407         0.996315         1.503372
 C        -1.080648         1.531429         1.853910
 C        -3.873936         0.851328         1.938838
 O        -4.209775        -0.571700         1.420253
 C        -2.960117        -1.368923         1.466645
 C        -1.815630        -0.419973         1.820183
 H         0.782337         0.319680        -0.079679
 H        -1.743014         1.821684        -0.584551
 H        -2.533579        -0.001965        -0.494916
 H        -0.759360         2.502423         1.339051
 H        -0.688497         1.477338         2.835333
 H        -3.877578         0.823524         2.980833
 H        -4.614128         1.492125         1.516605
 H        -3.007626        -2.248604         2.087767
 H        -2.806160        -1.862840         0.451623
 H        -1.442832        -0.533321         2.846037
