19
Iteration:  2219charge 0 multiplicity 1
 O         0.438260        -0.246149         0.445714
 C        -0.777392         0.365188         0.870928
 C        -1.925380         0.966323         0.111494
 C        -2.469838         0.990536         1.553119
 C        -0.998543         1.456622         1.998411
 C        -4.019431         0.795808         1.738987
 O        -4.142460        -0.632237         1.788562
 C        -3.104929        -1.270648         1.204097
 C        -1.873877        -0.442962         1.657072
 H         0.653579        -0.828201         1.086384
 H        -1.631812         1.889790        -0.486777
 H        -2.397107         0.272554        -0.546106
 H        -0.748524         2.479414         1.923728
 H        -0.729610         1.260452         3.099169
 H        -4.238603         1.053277         2.801802
 H        -4.724804         1.220338         0.988109
 H        -3.003798        -2.288783         1.641073
 H        -3.090695        -1.285712         0.073386
 H        -1.454388        -0.762211         2.664209
