19
Iteration:  3979
 O         0.528252        -0.163460         0.640244
 C        -0.782540         0.360508         0.872213
 C        -2.050090         0.652461        -0.143376
 C        -2.451242         0.867241         1.323574
 C        -1.209385         1.669911         1.766828
 C        -3.836477         0.854237         1.880712
 O        -4.140822        -0.572439         1.844351
 C        -3.028044        -1.366140         1.442206
 C        -1.891571        -0.441764         1.756986
 H         0.770570         0.061315        -0.414366
 H        -2.047165         1.622462        -0.806214
 H        -2.476833        -0.223938        -0.596781
 H        -1.033470         2.708266         1.475213
 H        -1.154067         1.600887         2.853553
 H        -3.969935         1.300515         2.907243
 H        -4.536958         1.383130         1.189136
 H        -2.848476        -2.246911         2.203879
 H        -3.135460        -1.788760         0.405125
 H        -1.435629        -0.517051         2.854647
