19
Iteration:  4998
 O         0.435146        -0.193564         0.510508
 C        -0.884918         0.264455         0.892931
 C        -1.864961         0.794017        -0.132219
 C        -2.482572         0.941612         1.560985
 C        -1.118651         1.619967         1.785776
 C        -3.936274         0.774691         1.892954
 O        -4.200897        -0.562324         1.544008
 C        -2.974084        -1.349524         1.545090
 C        -1.838715        -0.414866         1.877732
 H         0.579468         0.235150        -0.331995
 H        -1.500438         1.716159        -0.529811
 H        -2.436509         0.024980        -0.776138
 H        -0.897984         2.640016         1.391550
 H        -0.753991         1.568602         2.820597
 H        -4.128801         0.903189         2.923259
 H        -4.747162         1.353618         1.446144
 H        -3.016869        -2.200988         2.279398
 H        -2.884863        -1.774989         0.555732
 H        -1.426363        -0.652440         2.874242
