19
Iteration:  3896charge 0 multiplicity 1
 O         0.325531        -0.078111         0.362149
 C        -0.915488         0.257153         0.855640
 C        -1.971478         0.671871         0.019315
 C        -2.471935         0.928299         1.589751
 C        -1.185033         1.616451         1.791806
 C        -3.953030         0.868349         1.784928
 O        -4.053452        -0.504897         1.521079
 C        -2.903378        -1.379365         1.613817
 C        -1.727583        -0.469300         1.933141
 H         0.601057        -0.944397         0.752288
 H        -1.941483         1.573710        -0.535931
 H        -2.518054        -0.070844        -0.614738
 H        -1.036906         2.570941         1.282733
 H        -0.489916         1.527115         2.666967
 H        -4.415062         1.219087         2.749523
 H        -4.556876         1.369215         1.020665
 H        -3.011868        -2.068324         2.429230
 H        -2.889213        -2.075306         0.782915
 H        -1.225013        -0.400852         2.870278
