19
Iteration:  2150
 O         0.524587        -0.048040         0.409928
 C        -0.760676         0.308550         0.883566
 C        -1.893715         0.830602         0.091739
 C        -2.426978         0.906301         1.473188
 C        -1.111796         1.404958         1.991609
 C        -3.850692         0.889185         1.883369
 O        -4.291381        -0.583138         1.720698
 C        -3.099320        -1.327462         1.203978
 C        -1.941864        -0.499897         1.698574
 H         0.953182        -0.468561         1.263324
 H        -1.843571         1.799428        -0.408089
 H        -2.393897         0.019353        -0.551081
 H        -0.838422         2.427823         1.760637
 H        -0.847067         1.296284         3.099231
 H        -3.816112         1.225616         2.919589
 H        -4.495910         1.439565         1.216325
 H        -3.272785        -2.205151         1.733318
 H        -3.209005        -1.426286         0.111059
 H        -1.613726        -0.866884         2.650672
