19
Iteration:  3356charge 0 multiplicity 1
 O         0.488662        -0.098325         0.539333
 C        -0.791520         0.265520         0.908360
 C        -2.024191         0.730646        -0.042661
 C        -2.481886         0.916340         1.369476
 C        -1.057509         1.607143         1.671316
 C        -3.846133         0.809253         2.005567
 O        -4.230119        -0.530949         1.645934
 C        -3.087873        -1.383355         1.491956
 C        -1.889278        -0.516530         1.775317
 H         0.972038         0.748216         0.931016
 H        -1.805514         1.577312        -0.696756
 H        -2.598949        -0.129553        -0.640678
 H        -0.754917         2.394703         0.979921
 H        -0.604122         1.747438         2.688703
 H        -3.763568         0.997375         3.131750
 H        -4.621745         1.482236         1.635167
 H        -3.072312        -2.286745         2.141690
 H        -2.872699        -1.772859         0.446756
 H        -1.545344        -0.555481         2.866487
