19
Iteration:  1368
 O         0.538892        -0.101236         0.477020
 C        -0.729558         0.305920         0.898293
 C        -1.827375         0.910616         0.057507
 C        -2.435871         0.954553         1.498281
 C        -0.929471         1.435441         1.970618
 C        -3.905508         0.771164         1.876379
 O        -4.388733        -0.635426         1.724902
 C        -3.175837        -1.287297         1.140450
 C        -2.008705        -0.507963         1.737185
 H         1.173943         0.532654         0.992436
 H        -1.718520         1.952911        -0.353593
 H        -2.397614         0.264009        -0.598908
 H        -0.541825         2.330761         1.775903
 H        -0.622875         1.011069         2.953368
 H        -3.932065         1.070020         2.942277
 H        -4.647041         1.402329         1.268039
 H        -3.242680        -2.328938         1.449816
 H        -3.274719        -1.129149         0.066766
 H        -1.722175        -1.026542         2.730921
