19
Iteration:  3384charge 0 multiplicity 1
 O         0.471704        -0.203263         0.668056
 C        -0.816230         0.364036         0.783925
 C        -2.055325         0.724753        -0.117434
 C        -2.488084         0.893065         1.441065
 C        -1.128667         1.626831         1.810383
 C        -3.893152         0.900757         1.889687
 O        -4.187121        -0.578892         1.787160
 C        -2.999428        -1.370455         1.428846
 C        -1.794808        -0.475215         1.740291
 H         0.817922        -0.004089        -0.339417
 H        -1.971977         1.651970        -0.718817
 H        -2.534739         0.025260        -0.666481
 H        -0.941094         2.668432         1.438308
 H        -0.681682         1.333185         2.740881
 H        -4.063343         1.260664         2.910516
 H        -4.591727         1.390855         1.182474
 H        -2.925092        -2.316228         1.975506
 H        -2.844518        -1.518774         0.384284
 H        -1.376350        -0.659270         2.705605
