19
Iteration:  1449charge 0 multiplicity 1
 O         0.344887        -0.119683         0.356423
 C        -0.859103         0.211388         1.031215
 C        -1.935125         0.973422         0.134923
 C        -2.485912         0.994567         1.612435
 C        -0.910481         1.474758         1.912916
 C        -3.968148         0.718427         1.974065
 O        -4.175181        -0.517262         1.248795
 C        -3.041650        -1.307992         1.369406
 C        -1.802326        -0.497643         1.892406
 H         0.509749        -1.156175         0.493458
 H        -1.497030         1.951438        -0.115586
 H        -2.555481         0.620804        -0.742491
 H        -0.630771         2.507429         1.427277
 H        -0.604601         1.421676         2.909428
 H        -4.248446         0.563111         3.003179
 H        -4.490086         1.533818         1.564604
 H        -3.293333        -2.158309         1.961154
 H        -2.958398        -1.808426         0.356608
 H        -1.581603        -0.794323         2.920088
