19
Iteration:  3344
 O         0.539452        -0.067522         0.431621
 C        -0.786164         0.306501         0.914785
 C        -1.979925         0.656887        -0.072924
 C        -2.461737         0.967182         1.410740
 C        -1.032069         1.650246         1.693182
 C        -3.861061         0.825095         2.021458
 O        -4.296881        -0.577460         1.573781
 C        -3.092085        -1.434046         1.525403
 C        -1.894657        -0.441848         1.861198
 H         1.190959        -0.014076         1.040896
 H        -1.858695         1.535195        -0.692083
 H        -2.468502        -0.213183        -0.620477
 H        -0.865178         2.616114         1.198500
 H        -0.736717         1.628010         2.764844
 H        -3.658387         0.852565         3.127201
 H        -4.719162         1.424653         1.760138
 H        -3.294162        -2.279314         2.233512
 H        -3.228032        -1.790846         0.485947
 H        -1.618110        -0.510661         2.961129
