19
Iteration:  1483charge 0 multiplicity 1
 O         0.410924        -0.183152         0.432082
 C        -0.788649         0.317767         0.952970
 C        -2.095059         0.859653         0.150307
 C        -2.413130         0.988522         1.635145
 C        -1.046303         1.507578         2.061645
 C        -3.912013         0.794050         1.933678
 O        -4.112069        -0.486578         1.273905
 C        -3.068238        -1.329485         1.357701
 C        -1.793997        -0.523091         1.733165
 H         0.152342        -0.731042        -0.239462
 H        -2.001326         1.799816        -0.381148
 H        -2.747064         0.114850        -0.380848
 H        -0.650095         2.589307         1.838686
 H        -0.665445         1.148111         2.958393
 H        -4.245294         0.880846         2.946150
 H        -4.330814         1.550290         1.339247
 H        -3.156749        -1.948015         2.237500
 H        -3.059330        -1.946357         0.433016
 H        -1.330139        -0.829110         2.651078
