19
Iteration:  4484
 O         0.283403        -0.269410         0.309263
 C        -0.809252         0.372042         0.931311
 C        -1.958838         0.850781         0.002317
 C        -2.479099         1.054115         1.528020
 C        -1.038534         1.638417         1.836515
 C        -3.994811         0.736728         1.692384
 O        -4.170438        -0.656566         1.587708
 C        -2.861810        -1.383912         1.643340
 C        -1.797668        -0.318208         1.923343
 H         0.567792        -1.055626         0.973266
 H        -1.953481         1.839383        -0.504265
 H        -2.336961         0.099636        -0.645938
 H        -0.632910         2.580287         1.440090
 H        -0.733706         1.443401         2.861607
 H        -4.453004         1.038071         2.641822
 H        -4.430179         1.235501         0.884975
 H        -3.103187        -2.240409         2.330701
 H        -2.806320        -1.865528         0.651053
 H        -1.314906        -0.370052         2.923884
