19
Iteration:  1270
 O         0.403039        -0.091602         0.469213
 C        -0.824882         0.331557         0.992703
 C        -1.893565         0.922352         0.067030
 C        -2.404335         0.921450         1.532100
 C        -1.118725         1.455933         1.974394
 C        -3.813930         0.831747         1.823208
 O        -4.198679        -0.575090         1.719053
 C        -3.126997        -1.325986         1.147973
 C        -1.873957        -0.549992         1.681315
 H         0.595361        -0.993092         1.005783
 H        -1.685947         1.990017        -0.119318
 H        -2.156239         0.295684        -0.818810
 H        -0.777473         2.444392         1.655287
 H        -0.865376         1.160004         3.082207
 H        -4.094741         1.080485         2.813942
 H        -4.339871         1.490069         1.146097
 H        -3.173035        -2.403335         1.437197
 H        -3.109252        -1.313887         0.015412
 H        -1.654228        -0.837033         2.749228
