19
Iteration:  4778
 O         0.369251        -0.213510         0.387280
 C        -0.843051         0.319982         0.869287
 C        -1.934804         0.851707        -0.031113
 C        -2.470476         0.957279         1.438718
 C        -0.992181         1.478411         1.874216
 C        -4.013972         0.789174         1.863159
 O        -4.185013        -0.606037         1.502498
 C        -2.913728        -1.340610         1.585607
 C        -1.913654        -0.327421         1.878206
 H         1.249217        -0.098240         0.963945
 H        -1.694842         1.781494        -0.487635
 H        -2.550291         0.280868        -0.708425
 H        -0.905079         2.544881         1.613176
 H        -0.771592         1.216202         2.935241
 H        -3.959791         0.780764         2.957223
 H        -4.729935         1.427734         1.316803
 H        -2.978621        -2.104530         2.390409
 H        -2.707174        -1.907946         0.716675
 H        -1.589750        -0.267260         2.917115
