19
Iteration:  4944
 O         0.373405        -0.340300         0.612414
 C        -0.827422         0.314485         0.855768
 C        -1.968400         0.800089        -0.033605
 C        -2.519292         0.901538         1.534847
 C        -1.147291         1.675857         1.684628
 C        -3.950691         0.865042         1.993265
 O        -4.188143        -0.586274         1.596278
 C        -2.852340        -1.340075         1.376530
 C        -1.778793        -0.427975         1.815279
 H         1.089856         0.279537         0.469667
 H        -1.836959         1.776479        -0.408661
 H        -2.605293         0.157387        -0.687753
 H        -0.976905         2.594575         1.052192
 H        -0.722700         1.724546         2.710212
 H        -4.279194         1.027002         3.049187
 H        -4.667682         1.337322         1.314584
 H        -2.888390        -2.321036         1.876255
 H        -2.802815        -1.460409         0.328656
 H        -1.412522        -0.482750         2.843270
