19
Iteration:  2181
 O         0.319894        -0.208738         0.404442
 C        -0.821920         0.304721         0.929418
 C        -1.767517         1.060605         0.070884
 C        -2.438107         0.963634         1.465791
 C        -1.102324         1.492699         2.014203
 C        -3.940316         0.788899         1.762391
 O        -4.142964        -0.661669         1.802004
 C        -3.077366        -1.295752         1.236933
 C        -1.875614        -0.511011         1.708344
 H         0.788109        -0.652809         1.183169
 H        -1.449869         2.043713        -0.196583
 H        -2.233413         0.491879        -0.812988
 H        -0.861620         2.556707         1.601770
 H        -0.689734         1.190389         2.971143
 H        -4.091984         1.234080         2.724201
 H        -4.667006         1.171672         1.027567
 H        -3.272877        -2.278997         1.689700
 H        -3.134862        -1.365310         0.173665
 H        -1.608108        -0.826978         2.683345
