19
Iteration:   410charge 0 multiplicity 1
 O         0.331732        -0.216877         0.442094
 C        -0.802266         0.306218         0.957228
 C        -1.853128         0.911823         0.042910
 C        -2.449323         1.089160         1.464619
 C        -1.012921         1.571716         1.894135
 C        -3.903686         0.815959         1.762786
 O        -4.201134        -0.652249         1.804109
 C        -3.062102        -1.391439         1.261087
 C        -1.875039        -0.482960         1.755437
 H         0.849691        -0.358884         1.139144
 H        -1.492523         1.873775        -0.324887
 H        -2.327684         0.243651        -0.616624
 H        -0.694807         2.504471         1.439201
 H        -0.918245         1.414966         3.026199
 H        -4.259848         1.250417         2.776892
 H        -4.512585         1.169135         0.878790
 H        -2.980275        -2.454357         1.616274
 H        -3.257286        -1.562400         0.244746
 H        -1.663301        -0.735531         2.827134
