19
Iteration:   975charge 0 multiplicity 1
 O         0.421544        -0.238514         0.540534
 C        -0.802522         0.368904         0.914880
 C        -1.986971         0.960796         0.008918
 C        -2.413985         0.881159         1.567198
 C        -0.976934         1.477293         1.972038
 C        -3.857571         0.892581         1.823309
 O        -4.263326        -0.588248         1.682478
 C        -3.074544        -1.359404         1.180703
 C        -1.902880        -0.513961         1.698281
 H         1.204337         0.405590         0.859667
 H        -1.852177         1.938761        -0.520690
 H        -2.517889         0.209387        -0.622238
 H        -0.823305         2.467512         1.748263
 H        -0.596772         1.086608         2.971143
 H        -4.134470         1.087933         2.919953
 H        -4.502706         1.463096         1.201028
 H        -3.014659        -2.268769         1.761648
 H        -3.195642        -1.529686         0.055794
 H        -1.583487        -0.839857         2.677208
