19
Iteration:  4872
 O         0.526204        -0.032453         0.546789
 C        -0.733046         0.313918         0.873090
 C        -1.919064         0.941193        -0.068505
 C        -2.422763         0.912048         1.404000
 C        -1.100811         1.534182         1.821761
 C        -3.864252         0.871230         1.808417
 O        -4.282234        -0.588647         1.659125
 C        -3.157214        -1.528243         1.686704
 C        -1.865464        -0.537537         1.693186
 H         0.445806        -0.434244        -0.326544
 H        -1.613711         1.936666        -0.636714
 H        -2.472609         0.319400        -0.771857
 H        -0.909370         2.561739         1.474773
 H        -0.917660         1.399286         2.877480
 H        -4.033953         1.056046         2.895269
 H        -4.410837         1.467460         1.051333
 H        -3.220621        -2.144429         2.603870
 H        -3.265824        -2.280198         0.813118
 H        -1.416641        -0.735627         2.706998
