19
Iteration:  3133
 O         0.447125        -0.312576         0.572301
 C        -0.791830         0.282480         0.891484
 C        -1.910304         0.857748        -0.037183
 C        -2.461563         1.015584         1.409648
 C        -1.131345         1.693492         1.825757
 C        -3.997008         0.817599         1.676630
 O        -4.153253        -0.708358         2.018912
 C        -2.974888        -1.347884         1.387638
 C        -1.867878        -0.378233         1.703587
 H         0.855228         0.055419        -0.353369
 H        -1.757352         1.886319        -0.467904
 H        -2.402725         0.189214        -0.756080
 H        -0.823404         2.547413         1.220881
 H        -0.969986         1.583431         2.905946
 H        -4.414614         1.330129         2.570424
 H        -4.600635         1.088504         0.769746
 H        -2.814893        -2.332231         1.876078
 H        -3.178738        -1.467457         0.341080
 H        -1.640037        -0.559450         2.767743
