19
Iteration:   564
 O         0.362365        -0.301874         0.340374
 C        -0.790824         0.296826         0.943019
 C        -1.957742         0.904156         0.041471
 C        -2.521232         1.033151         1.557731
 C        -1.041121         1.494027         1.980756
 C        -3.963566         0.823593         2.014720
 O        -4.137432        -0.525248         1.278262
 C        -3.000484        -1.360158         1.390647
 C        -1.856368        -0.422414         1.891081
 H         1.085289        -0.265783         0.833334
 H        -1.718677         1.893737        -0.389424
 H        -2.483011         0.283750        -0.675035
 H        -0.965007         2.688634         1.695771
 H        -0.539160         1.356122         2.975779
 H        -3.905742         0.589927         3.037436
 H        -4.892743         1.372859         1.765610
 H        -3.217203        -2.176974         2.163634
 H        -2.542230        -1.763740         0.484319
 H        -1.515830        -0.688823         2.959541
