19
Iteration:  2947
 O         0.345756        -0.191941         0.520398
 C        -0.793019         0.381149         0.932403
 C        -2.057005         0.735123         0.044382
 C        -2.466282         1.024174         1.511979
 C        -1.060318         1.616250         1.792123
 C        -3.917190         0.835552         1.859720
 O        -4.122769        -0.604992         1.487369
 C        -2.945544        -1.394858         1.488432
 C        -1.779585        -0.424436         1.864785
 H         0.254980        -0.660056        -0.265901
 H        -1.918713         1.633404        -0.623005
 H        -2.597628        -0.142714        -0.587895
 H        -0.741779         2.504937         1.333462
 H        -0.712758         1.610816         2.878538
 H        -4.245018         0.938158         2.922597
 H        -4.583339         1.503801         1.228990
 H        -3.087288        -2.288923         2.203759
 H        -2.851375        -1.942251         0.513120
 H        -1.519810        -0.391625         2.950372
