19
Iteration:  2706charge 0 multiplicity 1
 O         0.441328        -0.202158         0.521326
 C        -0.786725         0.350397         0.897876
 C        -1.971777         0.784425        -0.025083
 C        -2.443543         0.985174         1.508609
 C        -1.009723         1.593809         1.891064
 C        -3.913265         0.716012         1.943850
 O        -4.269842        -0.563414         1.462107
 C        -3.047540        -1.344245         1.475102
 C        -1.824026        -0.459734         1.774793
 H         0.740107         0.454570        -0.049022
 H        -1.878883         1.772511        -0.410326
 H        -2.440641         0.110105        -0.714616
 H        -0.824339         2.535672         1.429498
 H        -0.795317         1.333682         2.931978
 H        -3.961344         0.787172         3.031920
 H        -4.657921         1.380616         1.489216
 H        -3.140768        -2.125372         2.242816
 H        -2.974327        -1.665583         0.462692
 H        -1.518034        -0.562569         2.855196
