19
Iteration:   114charge 0 multiplicity 1
 O         0.354210        -0.280049         0.421048
 C        -0.797686         0.296378         0.961975
 C        -1.975783         0.920811         0.079323
 C        -2.437533         1.023542         1.491787
 C        -0.986564         1.672107         1.830284
 C        -3.979078         0.784017         1.635203
 O        -4.191275        -0.687797         1.791487
 C        -2.997971        -1.297332         1.385704
 C        -1.818125        -0.456001         1.850234
 H         0.837454        -0.832008         1.135937
 H        -1.648055         1.900063        -0.439311
 H        -2.614800         0.165782        -0.561933
 H        -0.778892         2.610854         1.247879
 H        -0.521286         1.684933         2.816875
 H        -4.452441         1.264619         2.531617
 H        -4.524747         1.105267         0.705342
 H        -3.015496        -2.388893         1.753498
 H        -2.969621        -1.448201         0.270627
 H        -1.673839        -0.616395         2.933151
