19
Iteration:  2925charge 0 multiplicity 1
 O         0.502082        -0.088591         0.470915
 C        -0.814906         0.255799         0.950373
 C        -1.981689         0.757413        -0.004305
 C        -2.455247         0.858516         1.521851
 C        -1.169006         1.687150         1.764814
 C        -3.886322         0.810436         1.859401
 O        -4.260654        -0.538372         1.582359
 C        -2.943006        -1.367035         1.462409
 C        -1.857805        -0.466809         1.847528
 H         0.561107        -1.138998         0.271752
 H        -1.734783         1.748693        -0.402036
 H        -2.585612         0.130520        -0.812424
 H        -1.020932         2.597635         1.280072
 H        -0.646901         1.659245         2.768602
 H        -3.945351         1.073552         2.942574
 H        -4.458073         1.586561         1.280348
 H        -3.060320        -2.153156         2.280302
 H        -2.918092        -1.871444         0.477999
 H        -1.425528        -0.735181         2.837849
