19
Iteration:  2302charge 0 multiplicity 1
 O         0.467254        -0.097052         0.461540
 C        -0.828024         0.278130         0.904604
 C        -2.015399         0.921520         0.086798
 C        -2.440556         0.889612         1.553079
 C        -1.036813         1.455949         1.907457
 C        -3.800010         0.778268         1.988582
 O        -4.229460        -0.448388         1.432965
 C        -3.122718        -1.396192         1.348568
 C        -1.874646        -0.573028         1.720617
 H         1.229085         0.217589         1.000057
 H        -1.754076         1.933599        -0.283651
 H        -2.513104         0.292506        -0.662933
 H        -0.807362         2.431036         1.474291
 H        -0.886563         1.275344         2.935744
 H        -3.998627         0.973583         3.039776
 H        -4.466140         1.469281         1.471579
 H        -3.267706        -2.185909         2.058731
 H        -3.043956        -1.910743         0.396081
 H        -1.546960        -0.733571         2.732956
