19
Iteration:  2603charge 0 multiplicity 1
 O         0.495398        -0.124299         0.540213
 C        -0.831520         0.258794         0.896099
 C        -1.887867         0.803776        -0.028405
 C        -2.466890         0.937355         1.476342
 C        -1.125305         1.494788         1.884693
 C        -3.871295         0.820594         2.012661
 O        -4.289338        -0.487516         1.551371
 C        -3.034567        -1.399234         1.329285
 C        -1.851849        -0.487093         1.750872
 H         1.050261         0.672195         0.153105
 H        -2.015611         1.818432        -0.494792
 H        -2.344280         0.020756        -0.749824
 H        -0.855174         2.481990         1.558710
 H        -0.766784         1.388648         2.883950
 H        -3.887143         0.975146         3.099666
 H        -4.509647         1.606712         1.568895
 H        -3.128700        -2.188744         2.114695
 H        -3.157150        -2.032318         0.414963
 H        -1.519836        -0.816869         2.727085
