19
Iteration:  2993
 O         0.334640        -0.284072         0.444039
 C        -0.841751         0.346227         0.967602
 C        -1.981323         0.781848         0.036457
 C        -2.475579         0.918470         1.491898
 C        -1.081409         1.738340         1.749244
 C        -3.876276         0.778589         1.906028
 O        -4.121404        -0.592860         1.429606
 C        -3.002342        -1.381009         1.573251
 C        -1.813223        -0.427713         1.853235
 H         0.893396         0.384597         0.265743
 H        -1.909067         1.807113        -0.494983
 H        -2.374483         0.004986        -0.607850
 H        -0.979092         2.741871         1.221635
 H        -0.797250         1.799150         2.804409
 H        -4.035190         0.949900         3.001944
 H        -4.640106         1.297502         1.340719
 H        -3.002028        -1.945920         2.529296
 H        -2.999890        -2.175051         0.755571
 H        -1.373149        -0.611839         2.866861
