19
Iteration:  2267
 O         0.509543        -0.001710         0.422068
 C        -0.722187         0.265293         0.935347
 C        -1.840524         0.782967        -0.023034
 C        -2.423019         0.929281         1.505015
 C        -1.095423         1.438549         1.952417
 C        -3.877872         0.748426         2.049593
 O        -4.335023        -0.497976         1.609266
 C        -3.179244        -1.324147         1.252442
 C        -1.922285        -0.475923         1.681931
 H         1.193570        -0.287353         1.151738
 H        -1.757738         1.721429        -0.471192
 H        -2.243319         0.045940        -0.763303
 H        -0.524492         2.376366         1.724335
 H        -0.834666         1.207418         2.884191
 H        -3.972635         0.933426         3.110334
 H        -4.533451         1.367751         1.417515
 H        -3.196862        -2.233272         1.869076
 H        -3.153897        -1.543236         0.169765
 H        -1.714044        -0.673399         2.757089
