19
Iteration:  2602
 O         0.507187        -0.129979         0.546409
 C        -0.828494         0.268975         0.896676
 C        -1.891353         0.805189        -0.029880
 C        -2.466704         0.927742         1.482491
 C        -1.128101         1.491413         1.877979
 C        -3.881672         0.818543         2.011007
 O        -4.286274        -0.487078         1.558179
 C        -3.038270        -1.390662         1.326146
 C        -1.856365        -0.483460         1.741948
 H         1.037414         0.702801         0.102228
 H        -2.004568         1.842853        -0.510309
 H        -2.341415        -0.019203        -0.746388
 H        -0.829968         2.460585         1.541393
 H        -0.771869         1.375748         2.932778
 H        -3.887706         0.977435         3.109632
 H        -4.514323         1.610864         1.582819
 H        -3.123380        -2.169007         2.101946
 H        -3.165825        -2.057610         0.422892
 H        -1.510026        -0.819705         2.713935
