19
Iteration:  3852charge 0 multiplicity 1
 O         0.300064        -0.223926         0.406736
 C        -0.804771         0.356712         0.901740
 C        -1.912916         0.755298        -0.034272
 C        -2.491291         1.012322         1.473606
 C        -0.992613         1.660600         1.733527
 C        -3.973691         0.715824         1.989431
 O        -4.164678        -0.604699         1.449245
 C        -3.005605        -1.382057         1.665546
 C        -1.847180        -0.398042         1.828176
 H         1.128115         0.332561         0.732748
 H        -1.600457         1.500359        -0.767467
 H        -2.419241        -0.056307        -0.596111
 H        -0.841861         2.642129         1.272056
 H        -0.725685         1.776495         2.832576
 H        -3.940928         0.739124         3.104745
 H        -4.767494         1.347290         1.608133
 H        -3.097690        -2.090026         2.461920
 H        -2.843225        -1.938074         0.717950
 H        -1.395027        -0.361773         2.835060
