19
Iteration:  2755
 O         0.455129        -0.005513         0.503215
 C        -0.820997         0.247971         0.887100
 C        -1.946919         0.787443        -0.016149
 C        -2.436226         0.891089         1.450358
 C        -1.118916         1.498477         1.816177
 C        -3.861873         0.806954         1.874772
 O        -4.244207        -0.563254         1.683225
 C        -3.061088        -1.296133         1.310848
 C        -1.830572        -0.474697         1.851305
 H         0.871160        -0.660891         1.259027
 H        -1.809983         1.741294        -0.639620
 H        -2.448692        -0.017046        -0.564921
 H        -0.996579         2.485689         1.295589
 H        -0.615617         1.195905         2.802727
 H        -3.910848         1.063083         2.971983
 H        -4.557058         1.479099         1.330091
 H        -3.184934        -2.146241         1.991215
 H        -3.012007        -1.651863         0.214027
 H        -1.459731        -0.629182         2.863919
