19
Iteration:  2411
 O         0.528992        -0.048430         0.482286
 C        -0.799247         0.289525         0.912818
 C        -1.990304         0.907808        -0.062538
 C        -2.459970         0.989808         1.563489
 C        -1.040199         1.433462         1.959166
 C        -3.924282         0.812346         1.996812
 O        -4.285782        -0.544144         1.486398
 C        -3.080770        -1.355948         1.320026
 C        -1.814814        -0.517695         1.728543
 H         0.911771        -1.023261         0.646401
 H        -1.751926         1.830276        -0.569461
 H        -2.601062         0.172232        -0.495783
 H        -0.519312         2.404745         1.777257
 H        -0.739725         1.057986         2.883795
 H        -4.077662         0.757784         3.097597
 H        -4.604497         1.558849         1.570581
 H        -3.173674        -2.222777         2.042134
 H        -3.196465        -1.844111         0.327849
 H        -1.491080        -0.624192         2.793798
