19
Iteration:  4239
 O         0.485708        -0.159709         0.484571
 C        -0.798253         0.279870         0.882672
 C        -2.020948         0.698301        -0.044024
 C        -2.473638         1.087019         1.503479
 C        -0.985958         1.592742         1.720476
 C        -3.954108         0.725803         1.978709
 O        -4.232335        -0.591095         1.504871
 C        -3.017141        -1.403026         1.540718
 C        -1.867131        -0.398879         1.850088
 H         1.006754         0.728020         0.465824
 H        -1.831458         1.541310        -0.745039
 H        -2.630661        -0.075759        -0.571355
 H        -0.702302         2.524000         1.118969
 H        -0.684296         1.803734         2.802088
 H        -3.956253         0.964560         3.069280
 H        -4.813195         1.371371         1.615112
 H        -2.956374        -2.212054         2.339049
 H        -3.099517        -1.990793         0.568769
 H        -1.647208        -0.343607         2.917511
