19
Iteration:  2998
 O         0.316066        -0.246969         0.473184
 C        -0.856313         0.313322         0.897901
 C        -1.992831         0.774056         0.039430
 C        -2.447627         0.882924         1.478714
 C        -1.078940         1.698143         1.794810
 C        -3.866703         0.733736         1.875915
 O        -4.151144        -0.539275         1.448922
 C        -2.953226        -1.358257         1.582940
 C        -1.823637        -0.431264         1.823251
 H         1.177917         0.407410         0.323448
 H        -2.039310         1.702043        -0.427019
 H        -2.364765        -0.133083        -0.502974
 H        -1.169846         2.684987         1.246270
 H        -0.826918         1.935503         2.851522
 H        -3.890656         0.919705         2.959204
 H        -4.558694         1.398602         1.311340
 H        -2.954426        -1.834896         2.570458
 H        -3.043180        -2.059717         0.775791
 H        -1.407192        -0.514581         2.816022
