19
Iteration:   129charge 0 multiplicity 1
 O         0.351504        -0.220095         0.420285
 C        -0.799220         0.309848         1.002295
 C        -1.846891         0.826161         0.018285
 C        -2.467198         1.012477         1.518891
 C        -0.954670         1.654834         1.831188
 C        -3.992360         0.763560         1.762902
 O        -4.219055        -0.628701         1.775453
 C        -2.952740        -1.411331         1.326957
 C        -1.945698        -0.357885         1.781154
 H         0.556589        -0.960297         0.857230
 H        -1.599089         1.698732        -0.650961
 H        -2.304040         0.133425        -0.596428
 H        -0.681629         2.542132         1.283950
 H        -0.771570         1.914020         2.935486
 H        -4.424779         1.225912         2.792177
 H        -4.489189         1.215920         0.883243
 H        -2.919786        -2.231368         1.991287
 H        -3.060976        -1.759001         0.261664
 H        -1.588064        -0.485135         2.817315
