19
Iteration:  4837charge 0 multiplicity 1
 O         0.450237        -0.103501         0.513764
 C        -0.805097         0.303842         0.921141
 C        -2.017715         0.719026        -0.058222
 C        -2.492895         0.934869         1.446722
 C        -1.051715         1.531371         1.742193
 C        -3.908922         0.801951         1.952762
 O        -4.262381        -0.566173         1.589016
 C        -2.965850        -1.293905         1.400155
 C        -1.783676        -0.414385         1.894440
 H         0.646158        -0.949885         0.724519
 H        -1.695288         1.637419        -0.618177
 H        -2.527065        -0.030247        -0.651798
 H        -0.821613         2.555707         1.404987
 H        -0.888950         1.505397         2.822958
 H        -4.259437         0.890711         3.016068
 H        -4.577304         1.523963         1.505424
 H        -3.093015        -2.210608         1.958835
 H        -2.789062        -1.472476         0.309347
 H        -1.356963        -0.438198         2.892953
