19
Iteration:  2544charge 0 multiplicity 1
 O         0.435140        -0.118516         0.458495
 C        -0.829478         0.255671         0.911236
 C        -1.876146         0.883368         0.044770
 C        -2.458838         0.995908         1.429336
 C        -1.097992         1.525404         1.961206
 C        -3.950827         0.809179         1.862688
 O        -4.160612        -0.599505         1.733483
 C        -3.072362        -1.334750         1.231137
 C        -1.822729        -0.506421         1.761079
 H         0.660097        -0.940321         0.873063
 H        -1.738440         1.959904        -0.408134
 H        -2.411511         0.146230        -0.585818
 H        -0.920384         2.590204         1.613143
 H        -0.689291         1.275259         3.013441
 H        -4.176432         1.193630         2.890796
 H        -4.602138         1.277014         1.109226
 H        -3.253492        -2.295083         1.696123
 H        -3.119522        -1.335112         0.093114
 H        -1.504090        -0.635757         2.818957
