19
Iteration:  3694charge 0 multiplicity 1
 O         0.419507        -0.156578         0.506865
 C        -0.770334         0.342040         0.878309
 C        -1.850905         0.704524        -0.061350
 C        -2.491924         0.942833         1.433841
 C        -1.166664         1.562910         1.795455
 C        -3.928540         0.838356         1.894217
 O        -4.208548        -0.601680         1.910555
 C        -3.028872        -1.303502         1.342019
 C        -1.838946        -0.469396         1.659355
 H         1.063040         0.182811         1.061000
 H        -1.625771         1.648808        -0.554769
 H        -2.180610        -0.026357        -0.904173
 H        -1.139413         2.645733         1.468442
 H        -0.764348         1.503544         2.833644
 H        -4.086579         1.268952         2.923677
 H        -4.574317         1.308662         1.118873
 H        -2.874991        -2.379984         1.708634
 H        -3.276625        -1.329845         0.277150
 H        -1.670078        -0.821413         2.696415
