19
Iteration:  2510charge 0 multiplicity 1
 O         0.331789        -0.277966         0.430916
 C        -0.796232         0.329466         0.946097
 C        -1.797572         1.005421         0.075907
 C        -2.489187         0.964058         1.475064
 C        -1.101569         1.492463         1.955750
 C        -3.959547         0.826365         1.795620
 O        -4.177700        -0.627111         1.773929
 C        -3.026164        -1.358861         1.242319
 C        -1.837163        -0.474734         1.718277
 H         1.245240         0.201637         0.706155
 H        -1.742712         2.049657        -0.373359
 H        -2.194171         0.370061        -0.694841
 H        -0.881933         2.610937         1.638043
 H        -0.701304         1.316951         2.992230
 H        -4.361622         1.229236         2.757323
 H        -4.682948         1.186940         1.036358
 H        -3.109836        -2.315987         1.803647
 H        -3.086456        -1.703888         0.167247
 H        -1.530489        -0.597137         2.786516
