19
Iteration:  2344
 O         0.286240        -0.267805         0.274764
 C        -0.748343         0.381938         1.021076
 C        -2.033503         0.864119         0.106180
 C        -2.443445         0.990601         1.611824
 C        -0.941380         1.516657         2.037827
 C        -3.943535         0.730318         1.938730
 O        -4.162031        -0.532214         1.286554
 C        -2.972268        -1.314956         1.338586
 C        -1.891930        -0.397435         1.870332
 H         1.008791        -0.139950         0.799606
 H        -1.861245         1.674991        -0.491328
 H        -2.425447        -0.019990        -0.399731
 H        -0.640078         2.591929         1.780034
 H        -0.713716         1.243995         2.998213
 H        -4.202016         0.618839         2.992321
 H        -4.570667         1.551291         1.506908
 H        -3.053143        -2.189489         2.044783
 H        -2.889680        -1.824823         0.361432
 H        -1.618322        -0.671864         2.915821
