19
Iteration:  4672
 O         0.418749        -0.326437         0.470481
 C        -0.778996         0.340267         0.871319
 C        -1.980003         0.911668        -0.065814
 C        -2.480178         0.972282         1.413584
 C        -1.151473         1.706189         1.820157
 C        -3.968281         0.796799         1.942496
 O        -4.190454        -0.631553         1.619106
 C        -2.935282        -1.407170         1.485667
 C        -1.786825        -0.386599         1.787424
 H         0.677399        -1.084208         1.226590
 H        -1.726363         1.837838        -0.549550
 H        -2.583814         0.229063        -0.763489
 H        -1.022321         2.709804         1.453660
 H        -0.687999         1.569354         2.807445
 H        -4.026598         1.170205         2.962094
 H        -4.634203         1.368937         1.357050
 H        -2.978035        -2.152161         2.316736
 H        -2.977127        -1.947237         0.494677
 H        -1.387980        -0.291833         2.797904
