19
Iteration:  2911charge 0 multiplicity 1
 O         0.520915        -0.033929         0.484725
 C        -0.755075         0.335846         0.851066
 C        -1.947298         0.753785        -0.000207
 C        -2.464351         0.913790         1.425391
 C        -1.106930         1.513240         1.764625
 C        -3.911775         0.836255         1.926608
 O        -4.242880        -0.573281         1.614757
 C        -3.121479        -1.367459         1.479265
 C        -1.766920        -0.477885         1.853595
 H         0.596781        -0.909810         0.767754
 H        -1.863636         1.702968        -0.553563
 H        -2.373890        -0.093117        -0.677202
 H        -0.935809         2.489966         1.270548
 H        -0.969783         1.577103         2.809848
 H        -4.113370         0.986482         3.017722
 H        -4.655024         1.376961         1.297750
 H        -3.229035        -2.261451         2.137356
 H        -3.063511        -1.601273         0.423811
 H        -1.615231        -0.351500         2.909732
