19
Iteration:  3629
 O         0.407879        -0.222871         0.526248
 C        -0.837466         0.402724         0.884547
 C        -2.112281         0.783407         0.009698
 C        -2.407890         0.989049         1.582027
 C        -0.982363         1.578322         1.778612
 C        -3.927139         0.761386         1.919103
 O        -4.193559        -0.555223         1.379262
 C        -2.971405        -1.392655         1.611250
 C        -1.824539        -0.434038         1.826186
 H         0.729060         0.149749        -0.400683
 H        -2.087350         1.746646        -0.457185
 H        -2.756550         0.016088        -0.594740
 H        -0.771883         2.602271         1.352785
 H        -0.468177         1.345416         2.754005
 H        -4.197137         0.724046         3.000095
 H        -4.579609         1.412111         1.333318
 H        -3.320327        -2.120603         2.428394
 H        -2.730346        -1.899393         0.650654
 H        -1.156848        -0.499826         2.709243
