19
Iteration:   572charge 0 multiplicity 1
 O         0.313709        -0.284679         0.337182
 C        -0.772450         0.263056         0.998610
 C        -1.924462         0.889637         0.056827
 C        -2.471510         1.084417         1.544475
 C        -1.054775         1.554413         1.992297
 C        -3.955865         0.779617         2.043605
 O        -4.146281        -0.512361         1.263999
 C        -2.972575        -1.402008         1.392932
 C        -1.914952        -0.428639         1.846903
 H         1.133127         0.056096         0.739298
 H        -1.632171         1.804367        -0.477608
 H        -2.426063         0.214164        -0.559980
 H        -0.776429         2.365682         1.490504
 H        -0.620782         1.364283         3.005620
 H        -3.858545         0.632116         3.107804
 H        -4.796557         1.388172         1.783529
 H        -3.268342        -2.205734         2.137922
 H        -2.844402        -1.894260         0.367234
 H        -1.462907        -0.570837         2.863754
