19
Iteration:  3121
 O         0.379899        -0.293728         0.616501
 C        -0.792538         0.359654         0.909791
 C        -1.841227         0.933915        -0.035804
 C        -2.542121         0.976181         1.386878
 C        -1.025412         1.573009         1.681339
 C        -4.053011         0.726527         1.759017
 O        -4.147107        -0.677254         1.992650
 C        -2.987520        -1.313840         1.374134
 C        -1.861032        -0.388315         1.756010
 H         0.708099         0.069189        -0.266881
 H        -1.448277         1.843343        -0.467701
 H        -2.204070         0.275432        -0.883182
 H        -0.969240         2.612243         1.366212
 H        -0.561138         1.687251         2.718325
 H        -4.498107         1.298099         2.578802
 H        -4.638582         0.881963         0.796673
 H        -2.904760        -2.295266         1.924779
 H        -3.075879        -1.521991         0.325399
 H        -1.566421        -0.444170         2.809553
