19
Iteration:  2614charge 0 multiplicity 1
 O         0.383636        -0.120519         0.469220
 C        -0.816544         0.271650         0.910570
 C        -1.939568         0.807042         0.006836
 C        -2.437016         0.952331         1.461072
 C        -1.087933         1.554021         1.903873
 C        -3.798320         0.837218         1.964610
 O        -4.271255        -0.505531         1.482183
 C        -3.028546        -1.442921         1.413062
 C        -1.845416        -0.561184         1.801533
 H         0.962759         0.534001         0.718771
 H        -1.581959         1.794178        -0.448615
 H        -2.532896         0.163178        -0.722074
 H        -0.970093         2.560647         1.547684
 H        -0.756694         1.360513         2.899302
 H        -3.827687         0.872708         3.057748
 H        -4.572036         1.482495         1.522820
 H        -3.205125        -2.328067         2.071736
 H        -2.973010        -1.597863         0.335723
 H        -1.571980        -0.560942         2.850135
