19
Iteration:  4595charge 0 multiplicity 1
 O         0.566740        -0.054858         0.444323
 C        -0.719980         0.384599         0.847935
 C        -1.971483         0.720599        -0.070988
 C        -2.418866         0.921424         1.422352
 C        -1.098065         1.566759         1.819442
 C        -3.976453         0.840689         1.777934
 O        -4.279359        -0.550113         1.867473
 C        -3.110414        -1.386797         1.456283
 C        -1.877473        -0.573249         1.777980
 H         1.134374         0.034906         1.119010
 H        -1.727846         1.581241        -0.681030
 H        -2.359576        -0.126956        -0.698298
 H        -0.883674         2.599487         1.585106
 H        -0.821686         1.350007         2.858774
 H        -4.217967         1.333794         2.715084
 H        -4.449784         1.276266         0.980292
 H        -3.044689        -2.292803         2.118115
 H        -3.289001        -1.753654         0.418463
 H        -1.532424        -0.721737         2.828338
