19
Iteration:  1546
 O         0.501148        -0.155676         0.577580
 C        -0.754844         0.337225         0.904060
 C        -1.926148         0.822424         0.018939
 C        -2.474586         0.931037         1.498256
 C        -1.093702         1.436112         1.928481
 C        -3.882286         0.863251         1.979062
 O        -4.325156        -0.519172         1.683326
 C        -3.057733        -1.356105         1.190711
 C        -1.836579        -0.497722         1.634070
 H         0.984671         0.555752         0.255866
 H        -1.716200         1.773167        -0.500705
 H        -2.487494         0.063218        -0.595339
 H        -0.756878         2.464721         1.764271
 H        -0.740784         1.014727         2.816301
 H        -4.097354         1.076013         3.077200
 H        -4.575554         1.466579         1.364143
 H        -3.103947        -2.276271         1.713122
 H        -3.209124        -1.565846         0.080035
 H        -1.471455        -0.923477         2.615379
