19
Iteration:  3550charge 0 multiplicity 1
 O         0.417043        -0.211104         0.566038
 C        -0.886060         0.293433         0.813742
 C        -2.095725         0.873069        -0.012000
 C        -2.417377         0.960007         1.556851
 C        -1.055615         1.558357         1.757673
 C        -3.961781         0.856786         1.894739
 O        -4.143141        -0.557037         1.520803
 C        -2.924088        -1.428309         1.505297
 C        -1.782617        -0.487343         1.871482
 H         0.787204         0.205695        -0.185527
 H        -1.809204         1.837351        -0.451603
 H        -2.747228         0.310616        -0.753064
 H        -0.898341         2.600889         1.450484
 H        -0.511475         1.362570         2.722139
 H        -4.334037         1.013237         2.927071
 H        -4.660722         1.387803         1.185126
 H        -3.063556        -2.285632         2.272381
 H        -2.945680        -1.920789         0.522521
 H        -1.384780        -0.452092         2.872917
