19
Iteration:   775
 O         0.457593        -0.039286         0.533010
 C        -0.825243         0.225781         0.931250
 C        -1.950965         0.929311         0.013081
 C        -2.435680         0.961332         1.513177
 C        -0.989883         1.456491         1.935760
 C        -3.840983         0.881838         1.941873
 O        -4.241289        -0.555296         1.580544
 C        -3.090920        -1.386369         1.233204
 C        -1.952087        -0.598423         1.729668
 H         0.848437        -0.999337         0.702707
 H        -1.660689         1.965744        -0.244089
 H        -2.460068         0.279978        -0.718456
 H        -0.700089         2.462121         1.427835
 H        -0.791345         1.422689         2.981856
 H        -3.839817         0.997260         2.983799
 H        -4.546181         1.559247         1.402982
 H        -3.008656        -2.322137         1.760475
 H        -3.181024        -1.513507         0.114103
 H        -1.761005        -0.688003         2.796939
