19
Iteration:  4679charge 0 multiplicity 1
 O         0.400837        -0.247561         0.491917
 C        -0.801382         0.342424         0.825400
 C        -1.943551         0.892000        -0.075776
 C        -2.483324         0.966259         1.411723
 C        -1.088972         1.647642         1.779084
 C        -3.944659         0.785510         1.945041
 O        -4.193362        -0.609025         1.590497
 C        -2.970964        -1.431297         1.521263
 C        -1.831300        -0.379973         1.851102
 H         0.572280        -0.981571         1.174281
 H        -1.659570         1.828743        -0.551707
 H        -2.379130         0.222186        -0.762130
 H        -0.935471         2.623583         1.254458
 H        -0.683342         1.637859         2.816715
 H        -3.980320         0.963124         3.074608
 H        -4.876656         1.333101         1.536579
 H        -2.976186        -2.237962         2.281169
 H        -2.916868        -1.759019         0.510096
 H        -1.382522        -0.508762         2.847119
