19
Iteration:  2538
 O         0.463858        -0.178743         0.399705
 C        -0.825652         0.303395         0.898087
 C        -1.887316         0.904801         0.047308
 C        -2.446801         1.010627         1.478474
 C        -1.120648         1.563520         2.003055
 C        -3.922221         0.786555         1.793828
 O        -4.197823        -0.609646         1.766101
 C        -3.066151        -1.326682         1.209873
 C        -1.833101        -0.496103         1.792438
 H         0.782967        -0.879294         1.149420
 H        -1.833030         1.762907        -0.571556
 H        -2.423148         0.221338        -0.650463
 H        -0.727800         2.546319         1.768194
 H        -0.891173         1.309174         3.010769
 H        -4.116154         1.079452         2.823009
 H        -4.698927         1.245622         1.148003
 H        -3.232632        -2.324406         1.662162
 H        -3.097097        -1.372652         0.126236
 H        -1.460646        -0.638693         2.806067
