19
Iteration:  1957charge 0 multiplicity 1
 O         0.462479        -0.105920         0.502647
 C        -0.804898         0.316330         0.881484
 C        -1.911187         0.838497        -0.028203
 C        -2.448017         0.959069         1.505746
 C        -1.096625         1.486177         1.891750
 C        -3.862485         0.843123         1.967997
 O        -4.309557        -0.544861         1.708283
 C        -3.024768        -1.364909         1.190931
 C        -1.868764        -0.552785         1.705889
 H         1.106987        -0.102475         1.192914
 H        -1.725471         1.851801        -0.357583
 H        -2.400803         0.098327        -0.685461
 H        -0.621119         2.411910         1.704202
 H        -0.801042         1.069769         2.952961
 H        -3.946153         1.110373         3.024138
 H        -4.465290         1.578308         1.423535
 H        -3.187546        -2.388830         1.631867
 H        -3.043031        -1.543716         0.124658
 H        -1.833303        -0.691181         2.824952
