19
Iteration:  3010
 O         0.391348        -0.210319         0.502179
 C        -0.802958         0.363048         0.820687
 C        -2.057907         0.717851        -0.020139
 C        -2.429242         0.926210         1.509530
 C        -1.182142         1.591541         1.817798
 C        -3.847095         0.816142         1.873025
 O        -4.234330        -0.527275         1.469650
 C        -2.928207        -1.385923         1.627736
 C        -1.739868        -0.430766         1.802096
 H         1.038452         0.444553         0.577455
 H        -1.978431         1.525887        -0.686925
 H        -2.695278        -0.094577        -0.560205
 H        -1.016671         2.531871         1.262468
 H        -0.735585         1.552660         2.855170
 H        -4.010396         0.847787         2.958083
 H        -4.511572         1.617731         1.441672
 H        -3.178012        -2.101961         2.438106
 H        -2.830584        -1.982674         0.753073
 H        -1.413158        -0.434109         2.837409
