19
Iteration:  3159charge 0 multiplicity 1
 O         0.383266        -0.218538         0.502603
 C        -0.789063         0.327785         0.905337
 C        -1.926826         0.681726        -0.058763
 C        -2.450722         0.909493         1.362917
 C        -1.257563         1.604671         1.892633
 C        -3.901449         0.883651         1.726562
 O        -4.114697        -0.540200         1.901801
 C        -2.986852        -1.333327         1.456186
 C        -1.770768        -0.477641         1.724689
 H         0.975199         0.470831        -0.125218
 H        -1.741050         1.724597        -0.620612
 H        -2.244536        -0.168454        -0.693226
 H        -1.298695         2.697842         1.695605
 H        -1.118388         1.314234         2.913314
 H        -4.179386         1.359217         2.701893
 H        -4.486530         1.275965         0.906049
 H        -3.099556        -2.199252         2.078565
 H        -3.144990        -1.571156         0.349355
 H        -1.622124        -0.640203         2.822865
