19
Iteration:  4699
 O         0.391299        -0.002236         0.477160
 C        -0.861275         0.238740         0.967873
 C        -1.971555         0.684415        -0.037298
 C        -2.448234         0.987587         1.433082
 C        -1.032531         1.568911         1.716032
 C        -3.834738         0.739604         2.004808
 O        -4.234884        -0.570288         1.505301
 C        -3.025176        -1.361647         1.471619
 C        -1.886693        -0.405973         1.847663
 H         0.967216        -0.777421         0.953566
 H        -1.701590         1.607829        -0.660515
 H        -2.462435        -0.078235        -0.611755
 H        -0.653548         2.454572         1.148785
 H        -0.559870         1.480209         2.708612
 H        -3.849254         0.923072         3.087157
 H        -4.550489         1.561015         1.634091
 H        -3.072473        -2.008822         2.351694
 H        -2.952108        -1.856389         0.481374
 H        -1.619791        -0.273557         2.935688
