19
Iteration:  2137charge 0 multiplicity 1
 O         0.504834         0.034096         0.465958
 C        -0.780780         0.269836         0.956449
 C        -1.914408         0.841049        -0.023645
 C        -2.423858         0.885452         1.513117
 C        -0.994268         1.426256         1.922988
 C        -3.902703         0.837081         1.929959
 O        -4.272733        -0.514930         1.665083
 C        -3.193490        -1.343709         1.245518
 C        -1.894357        -0.594158         1.728710
 H         1.093429        -0.335559         1.094441
 H        -1.620107         1.762596        -0.516555
 H        -2.436240         0.145858        -0.776982
 H        -0.683038         2.472039         1.508522
 H        -0.649587         1.118745         2.887039
 H        -4.093610         0.939535         2.981659
 H        -4.566303         1.533202         1.403058
 H        -3.209935        -2.362994         1.665615
 H        -3.184114        -1.431567         0.187526
 H        -1.785939        -0.717947         2.793163
