19
Iteration:  1065
 O         0.491273        -0.064966         0.602020
 C        -0.820794         0.215879         0.924224
 C        -1.871182         0.995460         0.030123
 C        -2.462276         0.967828         1.492060
 C        -0.955921         1.368192         1.867872
 C        -3.946694         0.752779         1.933539
 O        -4.290430        -0.584315         1.668075
 C        -3.085096        -1.262408         1.198265
 C        -1.916217        -0.508915         1.746768
 H         0.654709        -0.963655         0.027824
 H        -1.599819         1.949000        -0.399910
 H        -2.431184         0.425291        -0.787141
 H        -0.582941         2.393712         1.629368
 H        -0.892984         1.157776         2.910065
 H        -4.144389         1.087151         2.995729
 H        -4.498831         1.440156         1.299981
 H        -3.036135        -2.345370         1.474762
 H        -3.036091        -1.152028         0.049569
 H        -1.616012        -0.661034         2.776191
