19
Iteration:   872charge 0 multiplicity 1
 O         0.379786        -0.115394         0.404323
 C        -0.795537         0.348959         0.928695
 C        -2.038772         0.909224         0.133042
 C        -2.407075         0.929659         1.651389
 C        -0.931101         1.496028         1.983150
 C        -3.877518         0.821015         1.861617
 O        -4.189381        -0.494890         1.360975
 C        -3.063136        -1.363552         1.365394
 C        -1.851364        -0.592974         1.771497
 H         0.490281        -0.943597         0.821210
 H        -2.034772         1.906754        -0.381599
 H        -2.527908         0.189669        -0.578790
 H        -0.865192         2.607681         1.709299
 H        -0.596079         1.338929         2.948480
 H        -4.350585         0.901100         2.920113
 H        -4.548041         1.436018         1.124609
 H        -3.280817        -2.123400         2.200521
 H        -3.048276        -2.070144         0.470790
 H        -1.372878        -0.763899         2.773546
