19
Iteration:   552charge 0 multiplicity 1
 O         0.366726        -0.279410         0.351391
 C        -0.841291         0.330963         0.899912
 C        -1.997551         0.921377         0.100001
 C        -2.448170         0.921349         1.602020
 C        -1.037254         1.527446         1.937934
 C        -3.918819         0.747646         1.948072
 O        -4.185415        -0.508096         1.303122
 C        -2.943071        -1.302443         1.418712
 C        -1.850644        -0.427304         1.857829
 H         0.901494        -0.553431         1.246370
 H        -1.791311         1.923100        -0.304067
 H        -2.498797         0.295736        -0.580113
 H        -0.755631         2.599979         1.672808
 H        -0.808692         1.185643         2.979747
 H        -4.093477         0.730203         2.987549
 H        -4.553302         1.506361         1.482226
 H        -3.122961        -2.187756         2.111357
 H        -2.899527        -1.729184         0.395632
 H        -1.506204        -0.512199         2.944704
