19
Iteration:   325
 O         0.616547        -0.179930         0.589019
 C        -0.747430         0.243372         0.893572
 C        -1.980931         0.729177        -0.034328
 C        -2.475835         0.931701         1.516483
 C        -1.174415         1.611845         1.817449
 C        -3.944577         0.852323         2.051959
 O        -4.266219        -0.466898         1.492817
 C        -3.051550        -1.345970         1.372417
 C        -1.814452        -0.526982         1.787552
 H         0.650088        -0.031412        -0.491579
 H        -1.774033         1.769774        -0.609545
 H        -2.617776        -0.023842        -0.516685
 H        -1.000534         2.506938         1.209165
 H        -0.803713         1.771859         2.840454
 H        -3.912471         0.806269         3.163072
 H        -4.777843         1.518409         1.747371
 H        -3.139993        -2.277099         2.018139
 H        -3.131553        -1.689285         0.257095
 H        -1.487548        -0.662153         2.818036
