19
Iteration:  3230charge 0 multiplicity 1
 O         0.328797        -0.236322         0.576273
 C        -0.898637         0.315842         0.892048
 C        -2.010525         0.664283        -0.080825
 C        -2.471605         0.900250         1.422267
 C        -1.237378         1.689275         1.713177
 C        -3.818334         0.839378         1.973540
 O        -4.129464        -0.465130         1.557107
 C        -2.925985        -1.380472         1.514398
 C        -1.732600        -0.506893         1.838494
 H         1.059421         0.433806         0.202773
 H        -1.821448         1.573055        -0.573846
 H        -2.598533        -0.049007        -0.633786
 H        -0.957894         2.686729         1.264357
 H        -0.938044         1.544612         2.804772
 H        -3.805234         1.011715         3.034256
 H        -4.576835         1.460359         1.449074
 H        -2.867176        -2.184428         2.299270
 H        -2.869568        -1.745301         0.476974
 H        -1.344872        -0.487186         2.866472
