19
Iteration:   257charge 0 multiplicity 1
 O         0.347102        -0.336089         0.410751
 C        -0.767743         0.360209         0.883404
 C        -2.000386         0.924145         0.106999
 C        -2.429567         1.015746         1.603714
 C        -0.967293         1.555999         1.888167
 C        -3.979837         0.840847         1.746750
 O        -4.270301        -0.674169         1.475133
 C        -2.931287        -1.374947         1.526399
 C        -1.846389        -0.394312         1.834916
 H         1.144177         0.094839         0.486579
 H        -1.897898         1.960822        -0.474307
 H        -2.646814         0.255684        -0.448555
 H        -0.898690         2.472562         1.385131
 H        -0.524172         1.600027         2.940696
 H        -4.326765         1.071880         2.747830
 H        -4.619991         1.399775         1.020800
 H        -3.005657        -2.140299         2.378613
 H        -2.727656        -1.836522         0.515627
 H        -1.327997        -0.570839         2.786109
