19
Iteration:  2067
 O         0.256515        -0.244716         0.377964
 C        -0.826908         0.288996         0.952492
 C        -1.959557         0.939759         0.148633
 C        -2.458472         0.939445         1.641605
 C        -0.991740         1.513857         1.906983
 C        -3.906793         0.754997         1.943010
 O        -4.154763        -0.545563         1.326257
 C        -2.952543        -1.331580         1.338405
 C        -1.875201        -0.434144         1.820995
 H         1.009502        -0.123220         0.835580
 H        -1.369874         1.800197        -0.287724
 H        -2.584696         0.499820        -0.589220
 H        -0.934627         2.561956         1.585605
 H        -0.623719         1.287707         2.970852
 H        -4.067523         0.774578         3.031189
 H        -4.516889         1.554865         1.464529
 H        -3.274855        -2.133622         2.108788
 H        -2.820647        -1.781994         0.284395
 H        -1.463734        -0.569379         2.890437
