19
Iteration:  4149charge 0 multiplicity 1
 O         0.435430        -0.018458         0.437137
 C        -0.844252         0.313522         0.831196
 C        -1.971145         0.688827        -0.026958
 C        -2.486897         0.967098         1.464733
 C        -1.043039         1.603903         1.761213
 C        -3.928866         0.832794         1.889895
 O        -4.195507        -0.621038         1.548758
 C        -2.990642        -1.413775         1.632534
 C        -1.823865        -0.392660         1.872080
 H         0.625914        -1.004990         0.646817
 H        -1.821708         1.659487        -0.556753
 H        -2.334989        -0.085702        -0.692922
 H        -0.862725         2.602015         1.258400
 H        -0.667031         1.437971         2.797146
 H        -4.192592         0.941206         2.999255
 H        -4.610919         1.421263         1.237075
 H        -2.989655        -2.141924         2.466158
 H        -3.071055        -2.050870         0.663270
 H        -1.515499        -0.447552         2.906534
