19
Iteration:  4083charge 0 multiplicity 1
 O         0.457902        -0.159196         0.583061
 C        -0.813123         0.268127         0.948514
 C        -1.896755         0.676915        -0.093963
 C        -2.462491         0.995907         1.280587
 C        -1.109370         1.692943         1.675854
 C        -3.930910         0.830080         1.898042
 O        -4.162039        -0.671402         1.934816
 C        -3.072959        -1.410785         1.393463
 C        -1.885396        -0.364837         1.753131
 H         0.827930         0.502899         0.123518
 H        -1.672119         1.592430        -0.622102
 H        -2.317872        -0.078861        -0.776318
 H        -0.695308         2.525071         1.063815
 H        -0.997606         1.707179         2.767373
 H        -3.857077         1.085953         2.986747
 H        -4.749065         1.340877         1.380071
 H        -2.941807        -2.265825         2.044780
 H        -3.140824        -1.733006         0.300029
 H        -1.803774        -0.368629         2.793757
