19
Iteration:    88charge 0 multiplicity 1
 O         0.360103        -0.233491         0.447858
 C        -0.820411         0.299532         0.913776
 C        -1.944546         0.843729        -0.069576
 C        -2.468697         0.924098         1.447883
 C        -1.139489         1.509886         1.943911
 C        -3.968831         0.858208         1.728684
 O        -4.153812        -0.528986         1.827978
 C        -2.901726        -1.322045         1.370101
 C        -1.840983        -0.460588         1.758794
 H         1.122840        -0.164468         1.237630
 H        -1.632334         1.689124        -0.600403
 H        -2.397100         0.080156        -0.682805
 H        -0.944662         2.538743         1.545305
 H        -0.807151         1.466400         2.974363
 H        -4.302856         1.306293         2.600929
 H        -4.434209         1.253696         0.838523
 H        -2.934923        -2.216654         1.955099
 H        -2.990496        -1.678590         0.370263
 H        -1.633469        -0.624548         2.829400
