19
Iteration:  4929
 O         0.364158        -0.205129         0.526922
 C        -0.824043         0.302936         0.959412
 C        -2.031201         0.695093         0.038452
 C        -2.445758         0.983694         1.497902
 C        -1.051187         1.634956         1.734680
 C        -3.909661         0.772811         1.831150
 O        -4.187392        -0.583183         1.656183
 C        -2.960608        -1.330413         1.323527
 C        -1.833876        -0.414222         1.890483
 H         0.952905         0.487491         0.299584
 H        -1.793137         1.618211        -0.587434
 H        -2.361303        -0.200544        -0.539858
 H        -0.949626         2.561358         1.180822
 H        -0.625419         1.706470         2.748521
 H        -4.016680         1.042119         2.867704
 H        -4.496452         1.551593         1.327094
 H        -3.097722        -2.261274         1.914555
 H        -2.877600        -1.607229         0.223887
 H        -1.558451        -0.743028         2.936263
