19
Iteration:   310
 O         0.438584        -0.251862         0.565776
 C        -0.765413         0.386527         0.952228
 C        -2.020289         0.711387         0.000239
 C        -2.436930         0.892007         1.477776
 C        -1.134054         1.675562         1.854559
 C        -3.807052         0.769356         1.988199
 O        -4.201055        -0.467433         1.467464
 C        -3.048796        -1.366846         1.365130
 C        -1.841041        -0.464755         1.769298
 H         0.680259         0.016426        -0.238805
 H        -1.985691         1.557858        -0.589631
 H        -2.360814        -0.073780        -0.636597
 H        -1.072477         2.691643         1.501185
 H        -0.896149         1.555789         2.960777
 H        -3.836504         0.839903         3.169419
 H        -4.507958         1.561698         1.585177
 H        -3.216450        -2.087272         2.191614
 H        -3.053855        -1.827218         0.409080
 H        -1.571233        -0.679531         2.826981
