19
Iteration:  3983
 O         0.536456        -0.166802         0.600577
 C        -0.771590         0.330138         0.882683
 C        -2.007707         0.665633        -0.154763
 C        -2.469492         0.871325         1.345812
 C        -1.227632         1.664982         1.786665
 C        -3.869772         0.874727         1.889142
 O        -4.160747        -0.583715         1.860469
 C        -3.013215        -1.359297         1.445720
 C        -1.836861        -0.424047         1.742168
 H         0.791666         0.064322        -0.241133
 H        -2.099656         1.493793        -0.784710
 H        -2.543590        -0.227860        -0.549140
 H        -1.016602         2.663093         1.410931
 H        -1.169898         1.600239         2.887537
 H        -4.115876         1.413887         2.826873
 H        -4.513091         1.310596         1.139954
 H        -2.937798        -2.225453         2.093340
 H        -3.114175        -1.792243         0.451507
 H        -1.594888        -0.490227         2.753893
