19
Iteration:  3317charge 0 multiplicity 1
 O         0.425834        -0.089473         0.366843
 C        -0.822716         0.328655         0.920822
 C        -1.964203         0.682538        -0.012450
 C        -2.480870         0.881053         1.467499
 C        -1.142720         1.631930         1.825817
 C        -3.910976         0.855275         1.896004
 O        -4.190263        -0.537761         1.508042
 C        -2.969660        -1.333094         1.652131
 C        -1.752091        -0.487694         1.829002
 H         0.626296        -0.948337         0.465637
 H        -1.888080         1.573244        -0.652609
 H        -2.377736        -0.153768        -0.570147
 H        -1.082069         2.571184         1.244886
 H        -0.839208         1.513704         2.885267
 H        -4.062476         1.038054         2.958286
 H        -4.656673         1.436637         1.307082
 H        -3.156127        -2.005619         2.489402
 H        -3.073053        -1.813120         0.681922
 H        -1.403882        -0.586615         2.840739
