19
Iteration:  3345
 O         0.536344        -0.069762         0.439794
 C        -0.787253         0.301371         0.919950
 C        -1.988404         0.666481        -0.070483
 C        -2.459887         0.962144         1.399873
 C        -1.032000         1.654173         1.689995
 C        -3.862077         0.826989         2.023406
 O        -4.290918        -0.580442         1.574371
 C        -3.092538        -1.429510         1.531251
 C        -1.899936        -0.453661         1.853544
 H         1.223848         0.064534         1.045727
 H        -1.846663         1.548253        -0.702831
 H        -2.500859        -0.241885        -0.638131
 H        -0.829845         2.603379         1.201134
 H        -0.691063         1.659493         2.766883
 H        -3.624422         0.885500         3.144821
 H        -4.728745         1.426637         1.756267
 H        -3.293303        -2.299820         2.197722
 H        -3.236636        -1.774043         0.466617
 H        -1.602046        -0.516539         2.957479
