19
Iteration:  3888charge 0 multiplicity 1
 O         0.364071        -0.112413         0.318105
 C        -0.843288         0.250150         0.831392
 C        -2.047199         0.766252         0.065781
 C        -2.437653         0.909468         1.540974
 C        -1.119486         1.616507         1.777441
 C        -4.002293         0.845121         1.797572
 O        -4.091737        -0.558055         1.477637
 C        -2.913740        -1.352421         1.708273
 C        -1.752070        -0.414522         1.954106
 H         0.744297        -0.835258         0.998851
 H        -1.843190         1.625508        -0.565172
 H        -2.631559        -0.085348        -0.448342
 H        -0.975288         2.559988         1.202579
 H        -0.644634         1.547812         2.783675
 H        -4.516586         1.079490         2.724649
 H        -4.551807         1.427989         1.010571
 H        -3.109020        -2.189126         2.397218
 H        -2.795686        -1.878848         0.679521
 H        -1.309252        -0.678088         2.970716
