19
Iteration:  1297charge 0 multiplicity 1
 O         0.538752        -0.180360         0.428529
 C        -0.757259         0.297635         0.889506
 C        -1.812303         0.971804         0.080517
 C        -2.439665         0.999315         1.551968
 C        -0.991134         1.421565         2.021510
 C        -4.129116         0.799492         1.808471
 O        -4.278090        -0.664621         1.861765
 C        -3.082160        -1.314579         1.105028
 C        -1.930349        -0.410550         1.610192
 H         0.869409        -0.635603         1.358836
 H        -1.460657         1.987605        -0.113770
 H        -2.139389         0.395475        -0.776173
 H        -0.628130         2.487046         1.610982
 H        -0.694819         1.119073         3.003375
 H        -4.379510         1.097380         2.881939
 H        -4.732684         1.387858         1.072111
 H        -2.950621        -2.354473         1.447146
 H        -3.189260        -1.189494         0.019297
 H        -1.828905        -0.668062         2.649399
