19
Iteration:  1967
 O         0.487149        -0.070661         0.499123
 C        -0.776271         0.348513         0.870411
 C        -1.873140         0.856499        -0.024374
 C        -2.466023         0.921587         1.429484
 C        -0.964884         1.433289         1.905859
 C        -3.965925         0.829017         2.025467
 O        -4.299048        -0.550845         1.633946
 C        -3.098943        -1.344598         1.278722
 C        -1.882652        -0.540987         1.727938
 H         0.859199        -0.247621         1.296050
 H        -1.751060         1.720961        -0.634935
 H        -2.410262         0.166870        -0.721205
 H        -0.867051         2.441464         1.618020
 H        -0.602474         1.226511         2.999728
 H        -3.911647         0.998348         3.105299
 H        -4.762209         1.389129         1.551490
 H        -3.181973        -2.367460         1.740314
 H        -3.273434        -1.346244         0.186570
 H        -1.442051        -0.788044         2.764020
