19
Iteration:  1696
 O         0.417511        -0.192281         0.542074
 C        -0.820232         0.277556         0.962468
 C        -1.947289         0.897552         0.035566
 C        -2.431595         0.952472         1.496003
 C        -1.065093         1.519909         1.926662
 C        -3.831084         0.762238         2.000223
 O        -4.196439        -0.490277         1.442889
 C        -3.110779        -1.398143         1.361242
 C        -1.832884        -0.500794         1.705290
 H         0.601486         0.362019        -0.239034
 H        -1.778499         1.887243        -0.408208
 H        -2.498999         0.271242        -0.726070
 H        -0.896305         2.502966         1.541664
 H        -0.756910         1.599938         3.041004
 H        -3.815284         0.828363         3.093020
 H        -4.607212         1.454382         1.576290
 H        -3.290694        -2.298279         2.062471
 H        -3.149949        -1.770974         0.323112
 H        -1.541490        -0.762901         2.727656
