19
Iteration:  3866charge 0 multiplicity 1
 O         0.377355        -0.223182         0.315699
 C        -0.817781         0.355969         0.929598
 C        -2.002810         0.778295         0.069101
 C        -2.461106         1.014653         1.491293
 C        -0.977505         1.682456         1.767111
 C        -3.907129         0.733460         1.854933
 O        -4.240270        -0.656222         1.453694
 C        -2.969185        -1.422752         1.607062
 C        -1.853719        -0.293839         1.911119
 H         1.082758        -0.093170         0.860442
 H        -2.042787         1.694837        -0.496718
 H        -2.508556        -0.140032        -0.467778
 H        -0.734224         2.580145         1.161447
 H        -0.397193         1.551263         2.710636
 H        -4.048918         0.837596         2.925265
 H        -4.722016         1.361128         1.438852
 H        -3.014802        -1.912641         2.606986
 H        -2.965944        -2.340387         0.907689
 H        -1.641501        -0.361228         3.065755
