19
Iteration:  1856
 O         0.508232        -0.221789         0.542985
 C        -0.734405         0.340194         0.924383
 C        -1.893759         0.891659         0.047185
 C        -2.477422         0.889182         1.478953
 C        -1.154938         1.540651         1.960450
 C        -3.875903         0.799807         1.876815
 O        -4.239623        -0.582312         1.735117
 C        -3.162960        -1.301926         1.192804
 C        -1.832619        -0.489931         1.714777
 H         0.756902         0.183932        -0.431592
 H        -1.696408         1.796594        -0.478224
 H        -2.286891         0.139564        -0.664651
 H        -0.876637         2.626174         1.805746
 H        -0.786786         1.222740         2.964966
 H        -3.949402         1.006670         2.941141
 H        -4.478071         1.535971         1.349059
 H        -3.303198        -2.287642         1.522658
 H        -3.310446        -1.258784         0.111893
 H        -1.448700        -0.854745         2.698366
