19
Iteration:  1309
 O         0.469118        -0.209559         0.473473
 C        -0.766163         0.353008         0.938144
 C        -1.760705         1.082499         0.013573
 C        -2.499428         0.971739         1.487613
 C        -1.022586         1.382155         1.987027
 C        -3.992807         0.775399         1.840834
 O        -4.218201        -0.664687         1.849153
 C        -3.127661        -1.275280         1.142481
 C        -1.967375        -0.484354         1.648219
 H         1.182232        -0.345092         1.201979
 H        -1.609593         2.089528        -0.334066
 H        -2.251370         0.524669        -0.801979
 H        -0.609380         2.431045         1.861242
 H        -0.816660         1.042133         2.968018
 H        -4.485962         1.241471         2.761185
 H        -4.532781         1.143243         0.923996
 H        -3.041643        -2.341140         1.513440
 H        -3.308206        -1.332039         0.076071
 H        -1.569204        -0.844867         2.580904
