19
Iteration:  2313charge 0 multiplicity 1
 O         0.414238        -0.166329         0.389803
 C        -0.847456         0.241369         0.974157
 C        -2.035591         0.964321         0.099553
 C        -2.393082         0.858870         1.598961
 C        -1.069858         1.464510         1.922494
 C        -3.856509         0.806460         1.948581
 O        -4.185162        -0.499779         1.377192
 C        -3.034020        -1.323075         1.355395
 C        -1.867238        -0.552932         1.761463
 H         1.058647         0.336816         1.140836
 H        -1.603794         1.897281        -0.305117
 H        -2.648075         0.441902        -0.636307
 H        -1.008994         2.454010         1.504700
 H        -0.706029         1.581136         2.897844
 H        -4.011655         0.729753         3.025065
 H        -4.301753         1.635820         1.422496
 H        -3.158604        -1.976888         2.183992
 H        -3.126804        -1.828747         0.408529
 H        -1.581698        -0.847298         2.746489
