19
Iteration:  3153
 O         0.425678        -0.253183         0.505932
 C        -0.791653         0.318918         0.884977
 C        -1.971707         0.748821        -0.080244
 C        -2.449677         0.947620         1.357907
 C        -1.256581         1.654877         1.944388
 C        -3.879097         0.808162         1.713346
 O        -4.074484        -0.519924         1.923538
 C        -3.038430        -1.359309         1.406849
 C        -1.806127        -0.470483         1.768743
 H         0.921924         0.236742        -0.140609
 H        -1.815077         1.507152        -0.761839
 H        -2.351826        -0.131998        -0.660280
 H        -1.330030         2.725384         1.706064
 H        -1.032056         1.352493         3.024588
 H        -4.170360         1.397413         2.580364
 H        -4.552518         1.134999         0.864442
 H        -3.135407        -2.302217         2.013075
 H        -2.989948        -1.617310         0.350011
 H        -1.505188        -0.433562         2.816895
