19
Iteration:  4442charge 0 multiplicity 1
 O         0.393473        -0.113089         0.383959
 C        -0.852634         0.286541         0.860623
 C        -1.994382         0.758690         0.016436
 C        -2.432131         0.930824         1.491417
 C        -1.133742         1.629698         1.744363
 C        -3.869130         0.780908         1.894072
 O        -4.143064        -0.544488         1.397113
 C        -3.042021        -1.399005         1.718793
 C        -1.810495        -0.448418         1.906787
 H         0.859200        -0.385667         1.111774
 H        -1.733924         1.583911        -0.701953
 H        -2.495130        -0.011051        -0.547147
 H        -0.901481         2.463637         1.098953
 H        -0.795125         1.631198         2.743619
 H        -4.004692         0.966898         3.017908
 H        -4.633603         1.417326         1.486125
 H        -3.106940        -2.115536         2.527076
 H        -2.836013        -1.916362         0.800719
 H        -1.412875        -0.295882         2.962994
