19
Iteration:  2617charge 0 multiplicity 1
 O         0.380713        -0.138261         0.444463
 C        -0.830892         0.301663         0.927230
 C        -1.965186         0.827948         0.007432
 C        -2.418054         0.928861         1.473620
 C        -1.081952         1.552221         1.900518
 C        -3.811692         0.827220         1.942646
 O        -4.246883        -0.511331         1.474967
 C        -3.033623        -1.419066         1.426370
 C        -1.854019        -0.563189         1.806683
 H         0.961266         0.554847         0.882047
 H        -1.498230         1.666098        -0.422599
 H        -2.499144         0.191093        -0.608871
 H        -0.887641         2.575139         1.491678
 H        -0.828228         1.376960         2.895135
 H        -3.806687         0.865902         3.033275
 H        -4.592516         1.504992         1.551398
 H        -3.224248        -2.369646         1.999510
 H        -2.926349        -1.633446         0.379257
 H        -1.566031        -0.524260         2.866527
