19
Iteration:  1651charge 0 multiplicity 1
 O         0.479920        -0.145688         0.539559
 C        -0.780149         0.332976         0.910026
 C        -1.920043         0.870953         0.078366
 C        -2.401335         0.896245         1.531675
 C        -1.088388         1.536259         1.952579
 C        -3.888008         0.816662         1.839388
 O        -4.270563        -0.516583         1.723661
 C        -3.086542        -1.346641         1.195651
 C        -1.868572        -0.621803         1.699785
 H         0.818804         0.264446        -0.300364
 H        -1.709083         1.807457        -0.451379
 H        -2.410733         0.203493        -0.635409
 H        -0.847604         2.507024         1.634632
 H        -0.709090         1.410478         3.033444
 H        -4.144101         1.079356         2.876592
 H        -4.486567         1.457819         1.147672
 H        -3.288890        -2.356632         1.714434
 H        -3.216255        -1.477200         0.137635
 H        -1.624910        -0.832779         2.754111
