19
Iteration:  1761charge 0 multiplicity 1
 O         0.280551        -0.238627         0.388367
 C        -0.914576         0.294976         0.986721
 C        -1.944284         0.927939         0.121338
 C        -2.425769         0.917695         1.586711
 C        -0.938996         1.515214         1.939906
 C        -3.904527         0.783622         1.929695
 O        -4.214027        -0.503962         1.292890
 C        -2.949312        -1.453072         1.392085
 C        -1.857163        -0.399347         1.907579
 H         0.605640         0.514841         0.054424
 H        -1.635863         1.802453        -0.483643
 H        -2.470233         0.182769        -0.587554
 H        -0.706065         2.415212         1.542201
 H        -0.393800         1.367278         2.941144
 H        -4.013457         0.764546         3.036397
 H        -4.597477         1.557422         1.459303
 H        -2.993716        -2.434828         2.072049
 H        -2.807618        -1.661222         0.330881
 H        -1.511276        -0.390024         2.960180
