19
Iteration:  3280
 O         0.360998        -0.205472         0.484157
 C        -0.865330         0.284140         0.870279
 C        -2.034603         0.842581         0.016980
 C        -2.478709         1.004162         1.589807
 C        -0.885790         1.564183         1.723996
 C        -4.038787         0.774749         1.777038
 O        -4.160944        -0.665275         1.494540
 C        -2.928334        -1.326902         1.645911
 C        -1.803279        -0.332257         1.899924
 H         0.302378        -0.450759        -0.390741
 H        -1.991769         1.856772        -0.452989
 H        -2.536543        -0.013887        -0.651611
 H        -0.879408         2.555560         1.344400
 H        -0.443244         1.657303         2.715144
 H        -4.412280         0.864723         2.853297
 H        -4.660289         1.349081         1.082864
 H        -2.831572        -2.045174         2.458473
 H        -2.646772        -1.954962         0.757818
 H        -1.349846        -0.330696         2.940022
