19
Iteration:   889charge 0 multiplicity 1
 O         0.457065        -0.096907         0.386510
 C        -0.802698         0.289695         0.914344
 C        -2.006018         0.935911         0.104525
 C        -2.398246         0.816958         1.594504
 C        -1.135376         1.483545         1.948768
 C        -3.846603         0.870432         1.895377
 O        -4.223758        -0.444188         1.378886
 C        -3.063791        -1.457103         1.400796
 C        -1.845790        -0.534904         1.805087
 H         0.706813        -0.724986         0.952287
 H        -1.792466         1.964133        -0.091102
 H        -2.597119         0.247687        -0.520619
 H        -0.777399         2.402810         1.529842
 H        -0.650826         1.295770         2.996510
 H        -3.958251         0.959008         2.937810
 H        -4.318074         1.643098         1.380693
 H        -3.248833        -2.324265         2.010006
 H        -3.078707        -1.623271         0.366771
 H        -1.503405        -0.745308         2.818377
