19
Iteration:  1229
 O         0.500241        -0.108675         0.425556
 C        -0.753868         0.327416         0.856600
 C        -1.915538         0.923973         0.132590
 C        -2.476575         0.919351         1.525844
 C        -0.936676         1.455597         1.994653
 C        -3.901255         0.747354         1.962409
 O        -4.300905        -0.557184         1.430254
 C        -3.147600        -1.331978         1.289262
 C        -1.931377        -0.463630         1.763431
 H         0.921610        -0.645549         1.096726
 H        -1.663586         1.924201        -0.308331
 H        -2.378624         0.255140        -0.569430
 H        -0.567693         2.496566         1.624929
 H        -0.745815         1.177420         3.068989
 H        -3.825996         0.803099         3.081852
 H        -4.681140         1.406456         1.585187
 H        -3.249021        -2.109847         1.990361
 H        -3.148110        -1.683017         0.216450
 H        -1.765268        -0.617392         2.810419
