19
Iteration:  3048
 O         0.455902        -0.079375         0.506866
 C        -0.819915         0.276382         0.952637
 C        -1.921371         0.715420        -0.027128
 C        -2.440125         0.933375         1.456469
 C        -1.077030         1.569909         1.659750
 C        -3.859210         0.804015         1.895369
 O        -4.342124        -0.607428         1.664278
 C        -3.049902        -1.395101         1.481188
 C        -1.844948        -0.422153         1.844902
 H         1.021641         0.634002         0.382431
 H        -1.624196         1.605474        -0.749160
 H        -2.559379        -0.012729        -0.405290
 H        -0.773630         2.487376         1.163173
 H        -0.556478         1.615047         2.589450
 H        -3.885949         1.016217         2.995069
 H        -4.473903         1.461531         1.309386
 H        -3.031415        -2.258078         2.147972
 H        -2.988322        -1.657353         0.376677
 H        -1.474343        -0.405197         2.899274
