19
Iteration:  1393
 O         0.473984        -0.120539         0.478855
 C        -0.820106         0.245971         0.932778
 C        -1.868178         0.929403         0.087820
 C        -2.495793         0.911691         1.525149
 C        -1.042016         1.436473         1.961242
 C        -3.887280         0.849156         1.976326
 O        -4.240451        -0.508651         1.561533
 C        -3.085429        -1.361372         1.209438
 C        -1.910409        -0.582368         1.660871
 H         1.019150         0.226142         1.106542
 H        -1.725108         1.993636        -0.290188
 H        -2.501684         0.354114        -0.588383
 H        -0.735190         2.375868         1.463168
 H        -0.588323         1.315138         2.951297
 H        -4.011526         0.877406         3.039653
 H        -4.501134         1.587466         1.491262
 H        -3.243751        -2.270904         1.719746
 H        -3.163609        -1.398513         0.089624
 H        -1.643322        -0.858318         2.724149
