19
Iteration:   739charge 0 multiplicity 1
 O         0.569137        -0.114860         0.420901
 C        -0.708962         0.368354         0.953625
 C        -1.887531         0.900007         0.039298
 C        -2.453889         0.820689         1.473868
 C        -1.115671         1.454460         2.060327
 C        -3.876739         0.906826         1.841896
 O        -4.265241        -0.574266         1.742300
 C        -3.094604        -1.314440         1.235454
 C        -1.956236        -0.501456         1.677849
 H         0.542246        -1.176581         0.424951
 H        -1.797213         1.835050        -0.418024
 H        -2.310970         0.347254        -0.853635
 H        -0.820742         2.481746         1.760644
 H        -0.921279         1.116880         3.077954
 H        -4.159772         1.211380         2.880224
 H        -4.603638         1.500243         1.200961
 H        -3.221424        -2.381084         1.633522
 H        -3.169439        -1.458305         0.119925
 H        -1.934765        -0.771749         2.780584
