19
Iteration:   649
 O         0.417318        -0.132213         0.566887
 C        -0.775349         0.361315         0.908127
 C        -1.794709         0.896217        -0.015918
 C        -2.412288         0.910066         1.480139
 C        -1.048962         1.491397         1.928614
 C        -3.867949         0.828725         1.924495
 O        -4.318963        -0.539290         1.670050
 C        -3.091844        -1.424034         1.261391
 C        -1.951748        -0.561700         1.747141
 H         0.669492         0.102546        -0.442701
 H        -1.571341         1.830952        -0.542222
 H        -1.982819         0.214781        -0.782203
 H        -0.812530         2.485934         1.713009
 H        -0.831408         1.258679         3.043906
 H        -3.979551         1.033035         3.069867
 H        -4.473409         1.605118         1.453699
 H        -3.468998        -2.438039         1.552506
 H        -2.930984        -1.412469         0.150237
 H        -1.549587        -0.677133         2.796462
