19
Iteration:  3462charge 0 multiplicity 1
 O         0.516051        -0.128317         0.485254
 C        -0.792925         0.296689         0.820153
 C        -1.996160         0.841447        -0.032803
 C        -2.442112         0.928327         1.511197
 C        -1.125062         1.571534         1.847480
 C        -3.942661         0.917643         1.743704
 O        -4.132437        -0.557116         1.907458
 C        -3.090693        -1.470813         1.387114
 C        -1.849277        -0.491117         1.682769
 H         0.843375        -0.423459         1.279195
 H        -1.992441         1.645934        -0.736107
 H        -2.407583         0.033394        -0.522046
 H        -0.990275         2.558942         1.364015
 H        -0.764202         1.671929         2.876858
 H        -4.329982         1.379819         2.637546
 H        -4.539927         1.236616         0.825694
 H        -2.864170        -2.408510         2.000907
 H        -3.295450        -1.815390         0.383382
 H        -1.590849        -0.747722         2.699913
