19
Iteration:   636charge 0 multiplicity 1
 O         0.485061        -0.114934         0.566991
 C        -0.801988         0.308527         0.930088
 C        -1.937333         0.865538         0.009573
 C        -2.435061         0.898424         1.482321
 C        -1.005609         1.422614         1.955204
 C        -3.848738         0.843627         1.885185
 O        -4.284327        -0.552185         1.577146
 C        -3.141709        -1.320850         1.294518
 C        -1.885418        -0.520252         1.746540
 H         0.732466         0.347284        -0.173827
 H        -1.822790         1.900156        -0.394364
 H        -2.544633         0.188746        -0.530548
 H        -0.606439         2.405544         1.548227
 H        -0.599907         1.210054         3.020016
 H        -3.869466         1.023274         3.045196
 H        -4.571299         1.425548         1.333635
 H        -3.077551        -2.265090         1.810511
 H        -3.208124        -1.511270         0.201296
 H        -1.641900        -0.738488         2.798002
