19
Iteration:  1656charge 0 multiplicity 1
 O         0.475973        -0.130228         0.541752
 C        -0.744680         0.311687         0.930584
 C        -1.940633         0.844432         0.057643
 C        -2.410983         0.911548         1.501397
 C        -1.045475         1.507242         1.972206
 C        -3.884032         0.847335         1.871682
 O        -4.317205        -0.564333         1.691850
 C        -3.111224        -1.310032         1.225124
 C        -1.847575        -0.599671         1.710800
 H         0.829017         0.279776        -0.333115
 H        -1.799017         1.808984        -0.463197
 H        -2.359697         0.184351        -0.731855
 H        -0.859369         2.595402         1.571256
 H        -0.718119         1.358675         3.007798
 H        -4.172642         1.020942         2.920293
 H        -4.496620         1.475451         1.212741
 H        -3.188324        -2.275768         1.615148
 H        -3.163030        -1.483364         0.107738
 H        -1.464764        -0.720767         2.736318
