19
Iteration:  1384charge 0 multiplicity 1
 O         0.502381        -0.078091         0.490465
 C        -0.786642         0.230050         0.970277
 C        -1.911938         0.968155         0.034609
 C        -2.407063         0.932444         1.550727
 C        -0.948790         1.392028         1.915238
 C        -3.888489         0.880155         1.996395
 O        -4.309361        -0.613477         1.602039
 C        -3.176594        -1.364239         1.139554
 C        -1.959653        -0.543904         1.726390
 H         1.138995         0.332739         0.972044
 H        -1.431590         1.883267        -0.306375
 H        -2.387857         0.380499        -0.775204
 H        -0.706329         2.456788         1.425244
 H        -0.662067         1.412224         2.954437
 H        -4.152561         0.948919         3.040894
 H        -4.498954         1.515540         1.429741
 H        -3.178062        -2.378012         1.569371
 H        -3.111864        -1.553175         0.037300
 H        -1.819119        -0.589914         2.775662
