19
Iteration:  3514charge 0 multiplicity 1
 O         0.527967        -0.145684         0.505792
 C        -0.776597         0.293926         0.911405
 C        -1.924244         0.666278        -0.070577
 C        -2.513580         1.038564         1.376314
 C        -1.133912         1.631463         1.790310
 C        -3.890095         0.811359         2.021435
 O        -4.223950        -0.550253         1.737807
 C        -3.112858        -1.398751         1.369762
 C        -1.826200        -0.504724         1.717737
 H         1.130884         0.549633         0.540789
 H        -1.657482         1.557547        -0.838978
 H        -2.388421        -0.081455        -0.663398
 H        -0.979436         2.696830         1.478779
 H        -0.937171         1.591882         2.846632
 H        -3.775972         0.983051         3.143656
 H        -4.737328         1.431733         1.648057
 H        -3.163339        -2.261191         2.047270
 H        -3.121372        -1.836897         0.330391
 H        -1.770089        -0.670343         2.774967
