19
Iteration:  1299charge 0 multiplicity 1
 O         0.535114        -0.188363         0.432194
 C        -0.770215         0.321228         0.890708
 C        -1.791818         0.979855         0.080483
 C        -2.447076         1.003559         1.543469
 C        -0.990997         1.419163         2.009955
 C        -4.118141         0.794155         1.815141
 O        -4.272532        -0.664510         1.866030
 C        -3.096786        -1.314512         1.101008
 C        -1.936828        -0.411549         1.611715
 H         0.948688        -0.616599         1.375369
 H        -1.511546         1.996067        -0.093045
 H        -2.135327         0.407938        -0.813109
 H        -0.659910         2.369578         1.653444
 H        -0.748514         1.057402         2.941140
 H        -4.414959         1.096456         2.898040
 H        -4.694082         1.391017         1.012592
 H        -2.883904        -2.365853         1.494043
 H        -3.169331        -1.187754         0.060161
 H        -1.778478        -0.720480         2.673978
