19
Iteration:  3436
 O         0.402504        -0.137938         0.418871
 C        -0.807782         0.308521         0.903735
 C        -1.902169         0.895842        -0.053864
 C        -2.478855         0.969979         1.391883
 C        -1.082091         1.542187         1.862963
 C        -3.991453         0.749120         1.665974
 O        -4.189029        -0.607899         1.917990
 C        -3.008439        -1.344005         1.480672
 C        -1.780873        -0.433344         1.844344
 H         0.377384        -1.072282         0.645621
 H        -1.678513         1.886333        -0.643213
 H        -2.304622         0.102599        -0.794490
 H        -0.657170         2.528776         1.529281
 H        -0.897967         1.370659         2.932455
 H        -4.272251         1.403959         2.551851
 H        -4.596797         1.005537         0.756099
 H        -2.881641        -2.339996         1.864331
 H        -3.050676        -1.352583         0.340831
 H        -1.499618        -0.569775         2.891432
