19
Iteration:  4999charge 0 multiplicity 1
 O         0.443151        -0.186213         0.499795
 C        -0.876228         0.262531         0.893026
 C        -1.863702         0.780766        -0.120714
 C        -2.479463         0.945207         1.567305
 C        -1.127409         1.621113         1.779674
 C        -3.936936         0.769405         1.890395
 O        -4.204368        -0.559014         1.544310
 C        -2.980711        -1.344553         1.545560
 C        -1.834800        -0.425099         1.884940
 H         0.588276         0.211727        -0.290787
 H        -1.510715         1.710774        -0.517695
 H        -2.487333         0.085082        -0.772111
 H        -0.899533         2.655600         1.388347
 H        -0.741273         1.575666         2.808053
 H        -4.161215         0.903474         2.917761
 H        -4.719947         1.369247         1.397593
 H        -3.026699        -2.202033         2.250087
 H        -2.886853        -1.762624         0.565103
 H        -1.451227        -0.652842         2.870049
