19
Iteration:  3544charge 0 multiplicity 1
 O         0.404840        -0.193926         0.595162
 C        -0.860059         0.330112         0.781007
 C        -2.080421         0.862035        -0.059673
 C        -2.458717         0.939540         1.564770
 C        -1.053492         1.546140         1.746071
 C        -3.884607         0.850609         1.898219
 O        -4.186494        -0.534205         1.562800
 C        -2.948091        -1.441685         1.511716
 C        -1.782891        -0.524577         1.829077
 H         0.956869         0.251242        -0.058983
 H        -1.937224         1.934782        -0.318180
 H        -2.599487         0.176502        -0.731459
 H        -1.116566         2.585014         1.371425
 H        -0.648121         1.388889         2.742256
 H        -4.257173         1.027585         2.918104
 H        -4.511581         1.431384         1.238762
 H        -3.083898        -2.190287         2.247289
 H        -2.687070        -1.827618         0.495897
 H        -1.456918        -0.592379         2.917780
