19
Iteration:  1901
 O         0.413226        -0.253796         0.498099
 C        -0.776248         0.310719         0.855667
 C        -1.851517         1.009691         0.076581
 C        -2.484341         1.023404         1.478691
 C        -0.966403         1.411283         2.005910
 C        -3.968446         0.805137         1.748924
 O        -4.205144        -0.670451         1.790880
 C        -3.061848        -1.303169         1.273766
 C        -1.928343        -0.490034         1.680666
 H         1.089876         0.564357         0.321855
 H        -1.739734         1.987365        -0.335148
 H        -2.524997         0.492881        -0.678499
 H        -0.661714         2.393339         1.679253
 H        -0.656232         1.310741         3.117829
 H        -4.270129         1.246015         2.696539
 H        -4.684559         1.073461         0.974920
 H        -2.985059        -2.277457         1.756053
 H        -3.177470        -1.401380         0.195312
 H        -1.939214        -0.532283         2.814228
