19
Iteration:  4052charge 0 multiplicity 1
 O         0.382332        -0.317536         0.515136
 C        -0.804159         0.323917         0.806288
 C        -1.956698         0.789117        -0.136683
 C        -2.491640         0.894525         1.440126
 C        -1.198311         1.643001         1.837171
 C        -4.065540         0.800231         1.696434
 O        -4.095706        -0.576548         1.976208
 C        -2.938930        -1.299948         1.512106
 C        -1.702750        -0.410819         1.714230
 H         1.157607         0.440466         0.685000
 H        -1.838911         1.841077        -0.466403
 H        -2.265543         0.065626        -0.884691
 H        -0.846355         2.680077         1.470650
 H        -0.886061         1.574435         2.903271
 H        -4.643097         1.334322         2.443151
 H        -4.636584         1.179785         0.784289
 H        -2.974556        -2.233972         2.078736
 H        -3.025409        -1.779513         0.538698
 H        -1.396631        -0.402223         2.762805
