19
Iteration:   966charge 0 multiplicity 1
 O         0.412103        -0.250411         0.565921
 C        -0.783041         0.355535         0.827725
 C        -1.968822         0.972894         0.088557
 C        -2.399862         0.927323         1.551144
 C        -1.078519         1.432323         1.910678
 C        -3.911123         0.861967         1.893721
 O        -4.210008        -0.534218         1.646174
 C        -3.037619        -1.357868         1.230043
 C        -1.869788        -0.574451         1.674285
 H         1.110536         0.404420         1.069710
 H        -1.844599         1.921055        -0.413468
 H        -2.461830         0.270157        -0.650807
 H        -1.017732         2.477364         1.668962
 H        -0.651113         1.275664         2.947988
 H        -4.098327         1.230492         2.895810
 H        -4.410501         1.510210         1.227068
 H        -3.380141        -2.310061         1.565473
 H        -3.101309        -1.505971         0.161010
 H        -1.460604        -0.853342         2.624318
