19
Iteration:  1961charge 0 multiplicity 1
 O         0.467162        -0.089949         0.504278
 C        -0.802923         0.342895         0.857341
 C        -1.885246         0.828161        -0.026153
 C        -2.454801         0.958057         1.468730
 C        -1.039972         1.455109         1.904406
 C        -3.911129         0.837506         2.003319
 O        -4.314301        -0.549743         1.676706
 C        -3.043027        -1.366512         1.225331
 C        -1.862226        -0.560411         1.727571
 H         1.093399        -0.190087         1.301399
 H        -1.751218         1.881368        -0.475304
 H        -2.407835         0.151860        -0.666938
 H        -0.681337         2.522398         1.663671
 H        -0.748847         1.110207         2.870615
 H        -3.919608         1.124087         3.086420
 H        -4.593805         1.539403         1.443324
 H        -3.195169        -2.362934         1.625716
 H        -3.181255        -1.462078         0.147918
 H        -1.737689        -0.730172         2.779064
