19
Iteration:   108charge 0 multiplicity 1
 O         0.359683        -0.293119         0.416735
 C        -0.798537         0.310089         0.920705
 C        -1.955615         0.889914         0.069286
 C        -2.470942         1.007850         1.531940
 C        -1.044968         1.625336         1.797405
 C        -3.977229         0.833120         1.613761
 O        -4.162926        -0.673670         1.797391
 C        -2.978946        -1.306406         1.396425
 C        -1.818105        -0.458086         1.866364
 H         0.838943        -0.654819         1.329443
 H        -1.906417         1.909270        -0.298217
 H        -2.470305         0.349057        -0.628999
 H        -0.761915         2.618328         1.472210
 H        -0.561958         1.487053         2.823556
 H        -4.445659         1.292762         2.550570
 H        -4.475624         1.085686         0.689976
 H        -3.062099        -2.316677         1.674470
 H        -2.956853        -1.335677         0.292983
 H        -1.481843        -0.508780         2.922704
