19
Iteration:  3633
 O         0.400586        -0.197113         0.543591
 C        -0.840992         0.397256         0.842703
 C        -2.097597         0.779380        -0.039275
 C        -2.401085         1.019935         1.587519
 C        -0.948701         1.557102         1.775161
 C        -3.949739         0.732288         1.927048
 O        -4.217572        -0.558853         1.406435
 C        -2.978738        -1.381457         1.621020
 C        -1.817969        -0.452151         1.833512
 H         0.714816         0.242595        -0.187794
 H        -2.010340         1.819501        -0.469114
 H        -2.513550         0.005101        -0.535832
 H        -0.755836         2.510121         1.289384
 H        -0.522194         1.313108         2.704218
 H        -4.237105         0.759812         2.976683
 H        -4.614920         1.392406         1.388206
 H        -3.248649        -2.100650         2.337211
 H        -2.817823        -1.788077         0.603104
 H        -1.173415        -0.601556         2.722661
