19
Iteration:  3434charge 0 multiplicity 1
 O         0.389780        -0.136437         0.418077
 C        -0.806753         0.286935         0.900028
 C        -1.881797         0.918824        -0.072699
 C        -2.481584         0.979717         1.393852
 C        -1.072712         1.541074         1.864130
 C        -4.012278         0.753259         1.670225
 O        -4.185092        -0.621510         1.917620
 C        -3.001779        -1.351175         1.478382
 C        -1.778379        -0.435716         1.866124
 H         0.322367        -1.006654         0.571106
 H        -1.652394         1.855785        -0.652755
 H        -2.245902         0.059178        -0.825898
 H        -0.697795         2.498843         1.481288
 H        -0.911140         1.423247         2.970333
 H        -4.250317         1.418958         2.540471
 H        -4.579668         1.050060         0.782710
 H        -2.913162        -2.366349         1.844304
 H        -3.069851        -1.312980         0.355055
 H        -1.519694        -0.519649         2.974407
