19
Iteration:   722charge 0 multiplicity 1
 O         0.550647        -0.114431         0.536351
 C        -0.803397         0.246426         0.901974
 C        -1.945946         1.016530         0.068774
 C        -2.428484         1.006455         1.520234
 C        -1.032154         1.431533         1.945369
 C        -3.930469         0.815289         1.790921
 O        -4.234327        -0.578728         1.772773
 C        -3.147664        -1.366885         1.183372
 C        -1.878674        -0.552845         1.702043
 H         0.658418        -1.189589         0.438712
 H        -1.679025         2.042534        -0.408671
 H        -2.531802         0.439203        -0.679314
 H        -0.724368         2.512905         1.778199
 H        -0.714482         1.403397         3.015939
 H        -4.201818         1.239468         2.752849
 H        -4.533274         1.324651         1.030039
 H        -3.156586        -2.347180         1.591069
 H        -3.315211        -1.425416         0.098286
 H        -1.524360        -0.779069         2.695045
