19
Iteration:   592charge 0 multiplicity 1
 O         0.295754        -0.228434         0.449395
 C        -0.795792         0.326805         0.956263
 C        -1.989136         0.872001         0.093564
 C        -2.413322         0.887775         1.590235
 C        -0.995507         1.555512         1.920042
 C        -3.820182         0.753361         1.899885
 O        -4.228019        -0.494653         1.354843
 C        -3.061959        -1.317945         1.349919
 C        -1.836920        -0.507354         1.820963
 H         0.946549         0.334176         0.582337
 H        -1.782352         1.884959        -0.301062
 H        -2.437590         0.169879        -0.615523
 H        -0.937955         2.620077         1.567399
 H        -0.672649         1.374775         2.983407
 H        -3.932008         0.629045         3.068236
 H        -4.426135         1.546455         1.474933
 H        -3.210047        -2.029729         2.148178
 H        -2.847755        -1.851668         0.395002
 H        -1.503000        -0.668019         2.848756
