19
Iteration:  4281charge 0 multiplicity 1
 O         0.563063        -0.148243         0.578181
 C        -0.782091         0.283247         0.851439
 C        -1.967985         0.758407        -0.048591
 C        -2.488997         0.908803         1.331756
 C        -1.254067         1.641660         1.844827
 C        -3.860120         0.856463         1.841665
 O        -4.175692        -0.534744         1.871878
 C        -3.055594        -1.451901         1.454816
 C        -1.831788        -0.475114         1.659891
 H         0.879830         0.297085        -0.117393
 H        -1.881243         1.726587        -0.614082
 H        -2.334436        -0.090486        -0.619450
 H        -1.009594         2.716078         1.638298
 H        -1.102696         1.423052         2.933773
 H        -4.207367         1.317955         2.726819
 H        -4.564814         1.403266         1.123074
 H        -3.184390        -2.343421         2.085059
 H        -3.107797        -1.849714         0.373879
 H        -1.457765        -0.647987         2.652813
