19
Iteration:  2174charge 0 multiplicity 1
 O         0.384344        -0.211860         0.397753
 C        -0.815898         0.315148         0.959052
 C        -1.783996         1.002520         0.005538
 C        -2.447078         0.942647         1.446698
 C        -1.175875         1.509440         2.065170
 C        -3.958374         0.827799         1.818491
 O        -4.160024        -0.599761         1.788355
 C        -3.085097        -1.321931         1.220951
 C        -1.804671        -0.563365         1.676490
 H         0.890114        -0.600115         1.012898
 H        -1.684718         2.088494        -0.296816
 H        -2.344495         0.420642        -0.722621
 H        -0.912917         2.484366         1.867933
 H        -0.509345         1.296951         2.982617
 H        -4.182964         1.216820         2.850367
 H        -4.535519         1.257529         0.994271
 H        -3.227193        -2.241899         1.766738
 H        -3.257659        -1.419570         0.090297
 H        -1.638996        -0.781248         2.769384
