19
Iteration:  3998
 O         0.492099        -0.182955         0.524865
 C        -0.773232         0.309646         0.855343
 C        -1.887615         0.696276        -0.030299
 C        -2.531343         0.993914         1.402325
 C        -1.197673         1.591893         1.751121
 C        -4.016406         0.833798         1.744610
 O        -4.223305        -0.592999         1.941592
 C        -2.961081        -1.365904         1.480154
 C        -1.790120        -0.454598         1.775532
 H         0.827447         0.495955        -0.234990
 H        -1.551999         1.570737        -0.660819
 H        -2.226202        -0.108570        -0.678647
 H        -1.001706         2.562275         1.200352
 H        -0.703505         1.614056         2.730371
 H        -4.145859         1.210196         2.749685
 H        -4.754210         1.295555         1.025007
 H        -3.030753        -2.291821         2.036629
 H        -3.092924        -1.471562         0.403454
 H        -1.399432        -0.443221         2.839272
