19
Iteration:  2972
 O         0.388890        -0.269098         0.473494
 C        -0.846477         0.272090         0.853914
 C        -1.984048         0.806024         0.033189
 C        -2.487003         1.067983         1.512940
 C        -1.041815         1.599883         1.803295
 C        -3.992479         0.755846         1.882499
 O        -4.217821        -0.578309         1.403306
 C        -2.834167        -1.428918         1.620475
 C        -1.834217        -0.347287         1.945362
 H         0.725645         0.076018        -0.468865
 H        -1.778888         1.710437        -0.625711
 H        -2.587185         0.099747        -0.456143
 H        -0.905350         2.593327         1.203005
 H        -0.663401         1.718577         2.825015
 H        -4.098766         0.812708         2.990809
 H        -4.713613         1.424061         1.431817
 H        -3.022552        -2.256759         2.289594
 H        -2.643938        -1.834982         0.569352
 H        -1.475506        -0.212362         2.993092
