19
Iteration:  3743
 O         0.473950        -0.093726         0.495180
 C        -0.781448         0.355455         0.836324
 C        -1.851600         0.890424        -0.061120
 C        -2.461815         0.892979         1.429976
 C        -1.179007         1.512808         1.880517
 C        -3.999898         0.831857         1.688074
 O        -4.166795        -0.594955         2.050125
 C        -3.036590        -1.380956         1.413069
 C        -1.831672        -0.450503         1.636012
 H         0.306735        -1.129478         0.678189
 H        -1.780703         1.931466        -0.514543
 H        -2.275157         0.096151        -0.623188
 H        -0.812394         2.392625         1.336390
 H        -0.870217         1.367131         2.932713
 H        -4.388603         1.421167         2.477093
 H        -4.385572         1.056280         0.703721
 H        -2.977092        -2.208863         2.055620
 H        -3.187614        -1.652262         0.293708
 H        -1.501411        -0.786425         2.677180
