19
Iteration:  2401
 O         0.483021        -0.103337         0.466753
 C        -0.814390         0.339028         0.841020
 C        -1.987021         0.893260         0.124566
 C        -2.425162         0.980842         1.579099
 C        -1.037737         1.482039         1.973116
 C        -3.868668         0.782103         1.935554
 O        -4.314086        -0.530381         1.448765
 C        -3.042933        -1.384435         1.372308
 C        -1.835959        -0.485372         1.666845
 H         0.553717        -1.032573         0.844197
 H        -1.745427         1.750045        -0.540948
 H        -2.522922         0.258071        -0.529552
 H        -0.802996         2.497449         1.720113
 H        -0.800985         1.284998         2.978127
 H        -4.036019         0.705313         3.031118
 H        -4.484355         1.539341         1.455000
 H        -2.972994        -2.114855         2.183578
 H        -3.054967        -1.800864         0.360226
 H        -1.362055        -0.940143         2.532167
