19
Iteration:   931
 O         0.431522        -0.166072         0.471222
 C        -0.762348         0.347646         0.903373
 C        -1.864126         0.852726         0.057539
 C        -2.469729         0.992912         1.477558
 C        -0.983478         1.471106         1.946268
 C        -3.818854         0.777398         2.009488
 O        -4.317939        -0.533930         1.531383
 C        -3.114744        -1.405234         1.222982
 C        -1.968249        -0.454816         1.748034
 H         1.279677         0.044878         1.008572
 H        -1.723495         1.802734        -0.541195
 H        -2.349796         0.040293        -0.472440
 H        -0.825020         2.448729         1.665372
 H        -0.720989         1.269159         3.039371
 H        -3.824905         0.815301         3.139750
 H        -4.559050         1.450716         1.658883
 H        -3.229928        -2.344909         1.711368
 H        -2.916688        -1.469546         0.141776
 H        -1.841754        -0.551870         2.816699
