19
Iteration:  1567
 O         0.393489        -0.250180         0.585586
 C        -0.813705         0.309360         0.885195
 C        -1.962421         0.988990        -0.031398
 C        -2.418487         0.864860         1.459650
 C        -1.121710         1.493218         1.991857
 C        -3.837883         0.826512         1.818605
 O        -4.136541        -0.548554         1.798468
 C        -3.081889        -1.322176         1.196739
 C        -1.870103        -0.541881         1.695291
 H         1.139058         0.543068         0.686330
 H        -1.910332         2.044154        -0.348762
 H        -2.416374         0.321601        -0.828253
 H        -1.121803         2.447435         1.480090
 H        -0.811540         1.372779         3.080009
 H        -4.051848         0.995458         2.901921
 H        -4.452152         1.523070         1.186385
 H        -3.269779        -2.348799         1.400876
 H        -3.113907        -1.289823         0.050649
 H        -1.493388        -0.978880         2.666351
