19
Iteration:  1776charge 0 multiplicity 1
 O         0.336282        -0.269604         0.415413
 C        -0.762093         0.325682         0.924461
 C        -1.956427         0.887684         0.077853
 C        -2.453362         0.974332         1.608884
 C        -1.040403         1.566716         1.983110
 C        -3.922882         0.759747         1.925380
 O        -4.188293        -0.526257         1.380246
 C        -3.016132        -1.299433         1.392630
 C        -1.818425        -0.546072         1.815126
 H         0.870493         0.330237        -0.247052
 H        -1.831627         1.917640        -0.280722
 H        -2.456570         0.228844        -0.600509
 H        -0.771274         2.605824         1.560661
 H        -0.806830         1.394457         3.016212
 H        -4.166413         0.775629         2.994433
 H        -4.573250         1.453257         1.415738
 H        -3.302021        -2.081475         2.073927
 H        -2.886593        -1.808762         0.396051
 H        -1.474680        -0.824286         2.808324
