19
Iteration:  4272charge 0 multiplicity 1
 O         0.513883        -0.131451         0.576954
 C        -0.771322         0.340345         0.840158
 C        -1.975476         0.763140        -0.127576
 C        -2.438281         0.876319         1.388613
 C        -1.254411         1.557887         1.843038
 C        -3.855294         0.879680         1.885925
 O        -4.195979        -0.499801         1.773075
 C        -3.011976        -1.451097         1.489534
 C        -1.811401        -0.537595         1.728086
 H         0.893506         0.424016         0.007786
 H        -1.956825         1.758106        -0.599556
 H        -2.364375        -0.017515        -0.850494
 H        -1.252118         2.565336         1.316810
 H        -1.142906         1.572665         2.987544
 H        -3.897745         1.241712         2.931994
 H        -4.558741         1.259583         1.104019
 H        -3.144636        -2.260864         2.288606
 H        -3.275546        -1.791175         0.442756
 H        -1.627704        -0.513799         2.806847
