19
Iteration:  2545charge 0 multiplicity 1
 O         0.427429        -0.103912         0.467309
 C        -0.824614         0.250860         0.916288
 C        -1.876694         0.882191         0.041453
 C        -2.463058         0.988400         1.427512
 C        -1.091571         1.521334         1.951326
 C        -3.954062         0.815900         1.873427
 O        -4.156276        -0.597576         1.728594
 C        -3.070030        -1.334427         1.238976
 C        -1.824831        -0.508321         1.751508
 H         0.658304        -1.010481         0.857116
 H        -1.702857         1.977714        -0.374864
 H        -2.421476         0.120969        -0.601976
 H        -0.958154         2.542752         1.597602
 H        -0.671059         1.280841         2.999970
 H        -4.184786         1.209076         2.892287
 H        -4.577924         1.295658         1.110749
 H        -3.235278        -2.304991         1.686358
 H        -3.116926        -1.344560         0.090500
 H        -1.533333        -0.645428         2.805343
