19
Iteration:  3967
 O         0.464335        -0.107955         0.707238
 C        -0.828207         0.387854         0.839842
 C        -2.045544         0.677566        -0.097271
 C        -2.489091         0.943925         1.334251
 C        -1.157466         1.617691         1.667086
 C        -3.785194         0.805456         1.869778
 O        -4.165855        -0.561560         1.784253
 C        -3.013905        -1.416536         1.493268
 C        -1.860687        -0.452045         1.766720
 H         0.661494        -0.156462        -0.194511
 H        -1.850790         1.649316        -0.723527
 H        -2.365786        -0.118010        -0.748833
 H        -1.040944         2.622062         1.205436
 H        -0.754580         1.504968         2.670738
 H        -3.537670         0.970841         2.930785
 H        -4.656680         1.450276         1.605586
 H        -3.111010        -2.350896         2.181923
 H        -3.112649        -1.776041         0.426839
 H        -1.512161        -0.562072         2.911022
