19
Iteration:  2147charge 0 multiplicity 1
 O         0.530039        -0.023498         0.430270
 C        -0.767770         0.297695         0.896028
 C        -1.883389         0.820688         0.067904
 C        -2.450634         0.914651         1.467571
 C        -1.087640         1.399139         1.987435
 C        -3.839527         0.878258         1.892629
 O        -4.288222        -0.580251         1.703747
 C        -3.137760        -1.301371         1.201851
 C        -1.933217        -0.537179         1.717300
 H         0.945192        -0.392647         1.132205
 H        -1.894395         1.790497        -0.391037
 H        -2.440045         0.059802        -0.534541
 H        -0.791386         2.494753         1.678107
 H        -0.678587         1.231518         2.958733
 H        -3.880167         1.182782         2.928245
 H        -4.528892         1.480893         1.279460
 H        -3.224404        -2.303402         1.728622
 H        -3.220810        -1.493384         0.162489
 H        -1.622994        -0.764121         2.742955
