19
Iteration:  1196charge 0 multiplicity 1
 O         0.350818        -0.188492         0.380314
 C        -0.868782         0.259197         0.915872
 C        -1.948751         0.892367         0.166005
 C        -2.426302         0.920836         1.634126
 C        -1.079508         1.490268         1.973959
 C        -3.876904         0.786265         1.979727
 O        -4.160400        -0.425650         1.276702
 C        -3.072910        -1.338952         1.309388
 C        -1.803185        -0.549754         1.800221
 H         0.977660         0.105112         1.007867
 H        -1.619564         1.866567        -0.267486
 H        -2.522407         0.311607        -0.548096
 H        -0.664895         2.503185         1.653598
 H        -0.845568         1.376969         3.058987
 H        -4.056847         0.805973         3.119152
 H        -4.550776         1.533130         1.559755
 H        -3.183959        -2.138019         1.989372
 H        -2.918308        -1.945315         0.385870
 H        -1.417126        -0.828692         2.760878
