19
Iteration:  3830
 O         0.438627        -0.245072         0.545047
 C        -0.817029         0.265706         0.825578
 C        -2.057404         0.738759        -0.036775
 C        -2.503990         0.898276         1.433567
 C        -1.234982         1.617654         1.724187
 C        -3.840027         0.831625         1.996040
 O        -4.164456        -0.515410         1.526143
 C        -2.904157        -1.369170         1.509087
 C        -1.814342        -0.410440         1.869907
 H         0.860272         0.549113         0.390129
 H        -1.961915         1.685716        -0.630238
 H        -2.508862         0.032141        -0.742041
 H        -1.061050         2.646991         1.342145
 H        -0.704404         1.590149         2.733746
 H        -3.736562         0.891404         3.095066
 H        -4.510849         1.592903         1.619255
 H        -3.016342        -2.041440         2.318427
 H        -2.897920        -1.920852         0.541876
 H        -1.454532        -0.449480         2.931286
