19
Iteration:  1220
 O         0.437969        -0.098631         0.413790
 C        -0.775954         0.319476         0.958816
 C        -1.875244         0.953455         0.072765
 C        -2.422342         0.903224         1.531869
 C        -0.873085         1.435889         1.959805
 C        -3.941785         0.742941         1.973420
 O        -4.318762        -0.504704         1.386270
 C        -3.104635        -1.392227         1.302266
 C        -1.984240        -0.470646         1.785383
 H         0.923853        -0.421899         1.190176
 H        -1.753428         1.968331        -0.362024
 H        -2.477536         0.330241        -0.539115
 H        -0.762595         2.520247         1.636354
 H        -0.407437         1.334370         2.862491
 H        -3.933513         0.633290         3.142503
 H        -4.711417         1.530393         1.743420
 H        -3.129536        -2.264340         1.940511
 H        -2.896820        -1.896931         0.358288
 H        -1.703346        -0.694662         2.800036
