19
Iteration:  3696charge 0 multiplicity 1
 O         0.431512        -0.145272         0.511773
 C        -0.777444         0.325988         0.877353
 C        -1.858650         0.719977        -0.061349
 C        -2.511376         0.956399         1.446270
 C        -1.140839         1.550152         1.780483
 C        -3.931405         0.840762         1.881360
 O        -4.203260        -0.609481         1.923581
 C        -3.024603        -1.309333         1.330439
 C        -1.864879        -0.474672         1.661101
 H         1.102688         0.101430         1.076846
 H        -1.630225         1.709646        -0.561952
 H        -2.136010        -0.005574        -0.819857
 H        -1.081387         2.640714         1.410213
 H        -0.796237         1.498208         2.826202
 H        -4.104819         1.291990         2.893232
 H        -4.570083         1.243991         1.116124
 H        -2.828458        -2.365846         1.709836
 H        -3.336428        -1.308599         0.257123
 H        -1.629857        -0.759515         2.748520
