19
Iteration:  4815charge 0 multiplicity 1
 O         0.347840        -0.236499         0.474159
 C        -0.795045         0.282525         0.956096
 C        -1.990058         0.737434         0.081581
 C        -2.448634         0.911975         1.553122
 C        -1.181462         1.795837         1.734100
 C        -3.847522         0.835836         1.925945
 O        -4.081467        -0.539975         1.554513
 C        -2.924163        -1.378952         1.309141
 C        -1.907816        -0.463544         1.819841
 H         0.624879        -0.982795         1.226071
 H        -1.931741         1.662305        -0.527400
 H        -2.556486        -0.041432        -0.435797
 H        -1.112329         2.669872         1.076639
 H        -0.643156         1.975979         2.677350
 H        -4.035404         0.901020         3.041612
 H        -4.615734         1.480872         1.540736
 H        -3.050882        -2.261591         1.930398
 H        -2.832949        -1.590783         0.227120
 H        -1.634885        -0.754868         2.823901
