19
Iteration:  4172
 O         0.364983        -0.204750         0.281114
 C        -0.758864         0.339855         0.914165
 C        -1.988744         0.779934         0.056178
 C        -2.490417         0.985471         1.490052
 C        -1.069008         1.623390         1.799151
 C        -3.986209         0.754184         1.799295
 O        -4.183041        -0.630859         1.467121
 C        -2.894459        -1.371412         1.644601
 C        -1.803356        -0.308333         1.977777
 H         0.872991        -0.660062         0.929135
 H        -1.898681         1.706953        -0.595489
 H        -2.675613         0.108393        -0.388314
 H        -0.716642         2.551681         1.220252
 H        -0.892489         1.604703         2.910814
 H        -4.253127         0.677494         2.907800
 H        -4.745065         1.412970         1.266862
 H        -3.063514        -2.107804         2.478664
 H        -2.831579        -2.012105         0.682230
 H        -1.479773        -0.261836         3.028721
