19
Iteration:  3479
 O         0.468577        -0.074884         0.519354
 C        -0.795100         0.299806         0.899806
 C        -1.922505         0.751594        -0.064994
 C        -2.469536         0.919420         1.372414
 C        -1.088974         1.566278         1.739377
 C        -3.902977         0.806593         1.864018
 O        -4.237189        -0.595811         1.881567
 C        -3.077583        -1.329113         1.388586
 C        -1.844867        -0.554363         1.731989
 H         1.028734         0.173418         1.161591
 H        -1.659785         1.819715        -0.455154
 H        -2.450733         0.085371        -0.826670
 H        -0.877685         2.554502         1.264451
 H        -0.814413         1.438371         2.791637
 H        -3.875015         1.305673         2.876974
 H        -4.464379         1.459836         1.198082
 H        -3.326966        -2.216257         1.921348
 H        -3.200785        -1.477851         0.275034
 H        -1.510784        -0.654410         2.810387
