19
Iteration:  2809
 O         0.374880        -0.207236         0.588681
 C        -0.812698         0.317537         0.928312
 C        -1.917053         0.949141        -0.007943
 C        -2.487836         0.851745         1.362965
 C        -1.079759         1.527555         1.842412
 C        -3.939450         0.891055         1.762166
 O        -4.157892        -0.635095         1.852549
 C        -2.914750        -1.387282         1.377499
 C        -1.898512        -0.414939         1.763399
 H         0.365987        -0.375519        -0.488332
 H        -1.703259         1.912821        -0.519932
 H        -2.286304         0.286753        -0.784399
 H        -0.725362         2.588456         1.709961
 H        -0.879113         1.391118         2.950094
 H        -4.387815         1.390945         2.649191
 H        -4.464395         1.259973         0.871435
 H        -2.966903        -2.395110         1.758620
 H        -2.965881        -1.638378         0.274092
 H        -1.523684        -0.480375         2.793930
