19
Iteration:  1281
 O         0.468655        -0.136574         0.465204
 C        -0.776153         0.293478         0.967705
 C        -1.845485         1.006845         0.046444
 C        -2.468037         0.947052         1.484551
 C        -1.000045         1.481749         2.016550
 C        -3.959053         0.791708         1.846943
 O        -4.226162        -0.631806         1.758027
 C        -3.127706        -1.267876         1.128600
 C        -1.913094        -0.551036         1.705179
 H         0.980478        -0.944751         0.917305
 H        -1.642072         1.936300        -0.528255
 H        -2.515680         0.374148        -0.561822
 H        -0.745245         2.482388         1.668314
 H        -0.753290         1.315654         3.144751
 H        -4.241114         1.176347         2.794834
 H        -4.577310         1.213789         1.060007
 H        -3.177636        -2.323806         1.457493
 H        -3.199049        -1.174078         0.002543
 H        -1.599810        -0.897223         2.727960
