19
Iteration:  4924
 O         0.382311        -0.182120         0.505992
 C        -0.830198         0.277430         0.942026
 C        -2.027918         0.677964         0.035116
 C        -2.455064         0.999769         1.456345
 C        -1.024481         1.653254         1.811316
 C        -3.871376         0.794429         1.814461
 O        -4.184351        -0.602175         1.658341
 C        -3.000477        -1.331840         1.343011
 C        -1.855042        -0.437880         1.890323
 H         0.964927         0.654116         0.193063
 H        -1.892303         1.541181        -0.570213
 H        -2.353865        -0.213295        -0.449368
 H        -0.880523         2.550851         1.157771
 H        -0.602247         1.754504         2.815915
 H        -4.072094         1.000059         2.916164
 H        -4.525873         1.480810         1.231856
 H        -3.140094        -2.229520         1.934017
 H        -2.902361        -1.635086         0.317447
 H        -1.657501        -0.672474         2.919976
