19
Iteration:  3773
 O         0.531136        -0.116489         0.477513
 C        -0.759177         0.270771         0.910100
 C        -1.920838         0.839690        -0.086484
 C        -2.484276         0.985085         1.335185
 C        -1.173007         1.567868         1.850650
 C        -3.885118         0.793486         1.760505
 O        -4.198604        -0.654785         1.920398
 C        -3.045254        -1.358406         1.428873
 C        -1.910942        -0.431687         1.861914
 H         0.265732        -0.579263        -0.479893
 H        -1.656060         1.879912        -0.502543
 H        -2.379345         0.100379        -0.712986
 H        -0.733809         2.477906         1.341951
 H        -1.015022         1.438257         2.949171
 H        -4.048831         1.315062         2.738642
 H        -4.528060         1.236439         0.990789
 H        -3.018979        -2.343412         1.928748
 H        -3.059756        -1.457379         0.346149
 H        -1.664815        -0.444801         2.921738
