19
Iteration:  3505charge 0 multiplicity 1
 O         0.566229        -0.119547         0.469813
 C        -0.795509         0.298771         0.911348
 C        -1.841929         0.663056        -0.129149
 C        -2.529988         1.027614         1.357244
 C        -1.167592         1.563670         1.778002
 C        -3.899792         0.829151         2.056616
 O        -4.225493        -0.580078         1.777967
 C        -3.042861        -1.394326         1.364702
 C        -1.993858        -0.461035         1.800568
 H         1.103699         0.594430         0.684695
 H        -1.634862         1.533423        -0.795006
 H        -2.299484        -0.092335        -0.712128
 H        -0.724770         2.483857         1.355717
 H        -0.970620         1.511007         2.854784
 H        -3.659147         1.088777         3.092343
 H        -4.677093         1.519543         1.649445
 H        -3.315859        -2.389368         1.790500
 H        -3.071015        -1.478232         0.272018
 H        -1.612799        -0.618175         2.776038
