19
Iteration:  3795
 O         0.469785        -0.107185         0.601126
 C        -0.826152         0.300702         0.872955
 C        -1.936333         0.745132        -0.036486
 C        -2.514580         0.909496         1.482819
 C        -0.976560         1.609383         1.676503
 C        -4.025206         0.825652         1.887555
 O        -4.216434        -0.602640         1.802028
 C        -3.009886        -1.360506         1.388338
 C        -1.844360        -0.456735         1.772264
 H         0.585864         0.045351        -0.270945
 H        -1.671009         1.700294        -0.626113
 H        -2.259323        -0.087643        -0.573154
 H        -0.919750         2.605064         1.150172
 H        -0.507559         1.455024         2.667361
 H        -4.174608         1.183318         2.943770
 H        -4.670340         1.397311         1.203018
 H        -3.035831        -2.234110         2.032176
 H        -3.052535        -1.675092         0.350475
 H        -1.419568        -0.625466         2.761920
