19
Iteration:  1018charge 0 multiplicity 1
 O         0.435608        -0.223159         0.502228
 C        -0.791376         0.284958         0.900443
 C        -1.789001         0.942344         0.008796
 C        -2.461924         0.854335         1.517509
 C        -1.169784         1.493437         2.058449
 C        -3.888898         0.886990         1.841799
 O        -4.231518        -0.592640         1.732428
 C        -3.054150        -1.327940         1.214937
 C        -1.890668        -0.531787         1.719171
 H         0.644182         0.239141        -0.432408
 H        -1.593167         2.036434        -0.081562
 H        -2.207576         0.604399        -0.960609
 H        -0.842177         2.403352         1.695719
 H        -0.861243         1.282222         3.145484
 H        -4.160469         1.366888         2.873188
 H        -4.362621         1.523298         1.081361
 H        -3.244913        -2.320664         1.600473
 H        -3.101399        -1.335503         0.034079
 H        -1.653327        -0.701466         2.769927
