19
Iteration:  1798charge 0 multiplicity 1
 O         0.491126        -0.254103         0.521106
 C        -0.754360         0.314327         0.863509
 C        -2.029397         0.949343         0.048748
 C        -2.478825         0.856311         1.551434
 C        -1.126560         1.570356         2.023663
 C        -3.874662         0.862744         1.960869
 O        -4.233509        -0.492562         1.483045
 C        -3.012832        -1.413317         1.340119
 C        -1.839987        -0.516590         1.676905
 H         0.735944         0.115709        -0.251721
 H        -1.914726         1.915156        -0.476386
 H        -2.492637         0.153098        -0.444021
 H        -0.812292         2.601652         1.572465
 H        -0.734385         1.268479         2.944767
 H        -4.036496         0.886739         3.039219
 H        -4.367134         1.692582         1.498272
 H        -3.087957        -2.289057         2.051823
 H        -3.122714        -1.908887         0.312075
 H        -1.556046        -0.683034         2.705459
