19
Iteration:  3094
 O         0.406304        -0.276007         0.620878
 C        -0.814426         0.319107         0.867873
 C        -1.983779         0.810094        -0.075259
 C        -2.470521         1.057646         1.354898
 C        -1.089807         1.599532         1.807845
 C        -3.915040         0.858160         1.765973
 O        -4.179244        -0.714435         1.927981
 C        -2.957106        -1.357754         1.396396
 C        -1.861481        -0.393104         1.720826
 H         0.829082         0.270708        -0.107695
 H        -1.696570         1.776493        -0.596327
 H        -2.405942         0.085834        -0.765593
 H        -0.795052         2.656749         1.583365
 H        -0.919731         1.546444         2.875805
 H        -4.181375         1.300983         2.738520
 H        -4.610802         1.125779         0.990764
 H        -2.786748        -2.257264         1.975444
 H        -3.041717        -1.620319         0.283752
 H        -1.586057        -0.486816         2.795339
