19
Iteration:   106
 O         0.362266        -0.294725         0.418701
 C        -0.806521         0.317469         0.903245
 C        -1.943524         0.876241         0.069642
 C        -2.479325         0.993344         1.543232
 C        -1.061748         1.606468         1.792837
 C        -3.972656         0.842105         1.614404
 O        -4.156271        -0.658876         1.801788
 C        -2.966024        -1.312148         1.393481
 C        -1.821878        -0.447196         1.869996
 H         0.846352        -0.605057         1.351891
 H        -1.948879         1.966796        -0.302022
 H        -2.460925         0.340977        -0.713317
 H        -0.778959         2.587260         1.525286
 H        -0.614040         1.422747         2.854841
 H        -4.486052         1.332165         2.593697
 H        -4.477901         1.112758         0.658553
 H        -3.064267        -2.349253         1.709345
 H        -2.939921        -1.300943         0.252670
 H        -1.418370        -0.486321         2.904554
