19
Iteration:  4341
 O         0.404156        -0.326076         0.591255
 C        -0.748239         0.357332         0.856754
 C        -1.937913         0.894468        -0.044106
 C        -2.481215         0.996848         1.393481
 C        -1.149836         1.628243         1.898116
 C        -3.981927         0.769515         1.678691
 O        -4.109529        -0.633967         2.001337
 C        -2.961577        -1.374966         1.395008
 C        -1.865689        -0.384208         1.677057
 H         0.736231        -0.156830        -0.362200
 H        -1.934137         1.774902        -0.672463
 H        -2.370645         0.038861        -0.606419
 H        -1.077276         2.644385         1.467755
 H        -0.904302         1.637035         2.963194
 H        -4.534865         1.380816         2.440917
 H        -4.284886         0.924843         0.681028
 H        -2.899454        -2.338254         1.912905
 H        -3.078091        -1.514816         0.322143
 H        -1.512047        -0.398016         2.736309
