19
Iteration:   144charge 0 multiplicity 1
 O         0.411061        -0.184961         0.450463
 C        -0.797839         0.353919         0.924268
 C        -1.849683         0.798424        -0.034981
 C        -2.490682         0.983754         1.407625
 C        -1.127754         1.565360         1.856556
 C        -3.962661         0.889209         1.834602
 O        -4.179331        -0.641666         1.720179
 C        -3.004168        -1.343826         1.419225
 C        -1.851564        -0.419695         1.813442
 H         0.585016        -1.146348         0.916900
 H        -1.635928         1.691405        -0.547566
 H        -2.191605         0.007550        -0.757352
 H        -0.857755         2.594449         1.446597
 H        -0.765308         1.274692         2.794795
 H        -4.117002         1.146438         2.809300
 H        -4.747334         1.370995         1.263711
 H        -2.989090        -2.273156         2.037105
 H        -2.952916        -1.521921         0.368872
 H        -1.690189        -0.552952         2.890441
