19
Iteration:  2548charge 0 multiplicity 1
 O         0.410827        -0.072839         0.494084
 C        -0.809309         0.247798         0.933278
 C        -1.883714         0.883037         0.024055
 C        -2.475495         0.959426         1.436893
 C        -1.073652         1.502010         1.925823
 C        -3.955020         0.836543         1.896981
 O        -4.151323        -0.590897         1.718677
 C        -3.056644        -1.330163         1.257282
 C        -1.839345        -0.514627         1.720778
 H         0.623922        -1.080426         0.764568
 H        -1.610089         1.911669        -0.284756
 H        -2.410877         0.131078        -0.644810
 H        -1.012807         2.466602         1.536187
 H        -0.669030         1.325377         2.910699
 H        -4.200046         1.227732         2.883737
 H        -4.532402         1.365010         1.122042
 H        -3.162688        -2.361922         1.654046
 H        -3.098660        -1.397565         0.145331
 H        -1.625072        -0.684988         2.772779
