19
Iteration:   468charge 0 multiplicity 1
 O         0.511792        -0.137914         0.671857
 C        -0.816234         0.316267         0.898650
 C        -1.827952         0.911550        -0.041069
 C        -2.425954         0.879324         1.459222
 C        -1.094915         1.484376         1.883467
 C        -3.850719         0.823405         1.912478
 O        -4.209232        -0.521272         1.759719
 C        -3.150480        -1.450337         1.263727
 C        -1.961937        -0.528094         1.615902
 H         0.787153         0.311891        -0.272101
 H        -1.748598         1.878915        -0.635734
 H        -2.202985         0.131763        -0.771589
 H        -1.076528         2.552802         1.458545
 H        -0.754620         1.649980         2.854747
 H        -3.919833         1.220339         3.027387
 H        -4.572030         1.540948         1.375328
 H        -3.219816        -2.328722         1.884558
 H        -3.469568        -1.625591         0.219388
 H        -1.787192        -0.743950         2.661511
