19
Iteration:   479
 O         0.503983        -0.062408         0.624904
 C        -0.760446         0.349242         0.936864
 C        -1.829829         0.810944        -0.064365
 C        -2.489411         0.960834         1.443343
 C        -1.072368         1.474609         1.899428
 C        -3.863192         0.875675         1.956486
 O        -4.219851        -0.535203         1.701475
 C        -3.178267        -1.452018         1.266038
 C        -1.946964        -0.548018         1.688255
 H         0.726109        -0.090850        -0.447012
 H        -1.653695         1.870995        -0.439227
 H        -2.305120         0.071372        -0.774054
 H        -0.629492         2.443093         1.455009
 H        -0.879701         1.160964         2.883765
 H        -3.945056         1.072861         3.118718
 H        -4.619027         1.429600         1.306090
 H        -3.349084        -2.335690         1.856195
 H        -3.221330        -1.782246         0.201356
 H        -1.648704        -0.643529         2.718209
