19
Iteration:  1266charge 0 multiplicity 1
 O         0.383927        -0.084055         0.478543
 C        -0.816178         0.318474         0.961971
 C        -1.898658         0.902734         0.080555
 C        -2.397781         0.883426         1.546376
 C        -1.141322         1.449554         1.992168
 C        -3.800291         0.858576         1.823292
 O        -4.198849        -0.553066         1.702060
 C        -3.076496        -1.341404         1.143768
 C        -1.873975        -0.551354         1.671886
 H         0.442387        -0.833889         0.962973
 H        -1.673708         1.933607        -0.148429
 H        -2.093383         0.348211        -0.842587
 H        -0.815496         2.425655         1.753665
 H        -0.877528         1.259837         2.957628
 H        -4.026046         1.129010         2.923929
 H        -4.405720         1.561101         1.165771
 H        -3.247983        -2.407319         1.479580
 H        -3.195431        -1.411698         0.073126
 H        -1.677777        -0.761552         2.747622
