19
Iteration:  1757charge 0 multiplicity 1
 O         0.256321        -0.237254         0.396467
 C        -0.871450         0.288513         0.984891
 C        -1.964702         0.889660         0.122275
 C        -2.459557         1.005773         1.611731
 C        -0.909904         1.459499         1.922918
 C        -3.871837         0.800294         1.935608
 O        -4.218284        -0.520128         1.274070
 C        -2.898776        -1.459905         1.384175
 C        -1.903283        -0.409386         1.918870
 H         0.727538         0.700364         0.004550
 H        -1.632228         1.840905        -0.322191
 H        -2.528396         0.282148        -0.542092
 H        -0.821858         2.546371         1.406485
 H        -0.484897         1.323190         2.875689
 H        -3.993618         0.803672         3.045394
 H        -4.595897         1.451642         1.474051
 H        -3.090127        -2.278761         2.031730
 H        -2.754661        -1.756124         0.357428
 H        -1.554315        -0.410248         2.968706
