19
Iteration:  4763
 O         0.402862        -0.077800         0.316436
 C        -0.826725         0.219664         0.941833
 C        -1.952871         0.831655         0.021720
 C        -2.503684         1.046256         1.445786
 C        -1.022429         1.503932         1.866144
 C        -3.900802         0.808975         1.846418
 O        -4.170298        -0.581036         1.482205
 C        -3.030078        -1.433433         1.646185
 C        -1.913129        -0.443052         1.857848
 H         1.127853         0.215756         1.020637
 H        -1.593879         1.819529        -0.562970
 H        -2.350563         0.029858        -0.624163
 H        -0.427298         2.337014         1.406867
 H        -0.654914         1.368898         2.885948
 H        -4.273324         1.101284         2.820316
 H        -4.660688         1.309085         1.175547
 H        -3.149553        -2.112160         2.525095
 H        -2.977054        -2.093975         0.685451
 H        -1.636981        -0.554366         2.966602
