19
Iteration:  3316
 O         0.423018        -0.090272         0.369141
 C        -0.830960         0.324496         0.925199
 C        -1.971836         0.691057        -0.011907
 C        -2.480650         0.891012         1.467956
 C        -1.135967         1.634502         1.824010
 C        -3.906057         0.863914         1.882250
 O        -4.183534        -0.538490         1.508021
 C        -2.971180        -1.346621         1.654538
 C        -1.740404        -0.490459         1.835073
 H         0.609063        -0.975236         0.429792
 H        -1.909174         1.598894        -0.642252
 H        -2.414849        -0.178638        -0.610816
 H        -1.096741         2.568842         1.267885
 H        -0.867694         1.511577         2.901053
 H        -4.084112         1.031334         2.964318
 H        -4.666134         1.436936         1.301476
 H        -3.150505        -2.010584         2.494075
 H        -3.067909        -1.843980         0.668274
 H        -1.400711        -0.599588         2.860816
