19
Iteration:   277
 O         0.403824        -0.343752         0.452634
 C        -0.838176         0.258167         0.932216
 C        -2.041984         0.936480         0.037977
 C        -2.540037         1.011915         1.524023
 C        -0.930159         1.570489         1.815101
 C        -4.001843         0.738943         1.850683
 O        -4.127270        -0.552789         1.466119
 C        -2.933221        -1.368155         1.477627
 C        -1.888487        -0.398629         1.895410
 H         0.922679         0.589505         0.229423
 H        -1.685086         1.864978        -0.312965
 H        -2.534560         0.367887        -0.747324
 H        -0.544050         2.555786         1.529815
 H        -0.604482         1.367241         2.880591
 H        -4.328395         0.951335         2.988548
 H        -4.658415         1.355350         1.155206
 H        -3.108397        -2.160372         2.281387
 H        -2.866184        -1.852719         0.529702
 H        -1.599574        -0.409393         2.965340
