19
Iteration:  4487
 O         0.291118        -0.279428         0.317858
 C        -0.832494         0.361044         0.951749
 C        -1.960397         0.845676         0.001594
 C        -2.452371         1.058269         1.517191
 C        -1.049704         1.648653         1.825358
 C        -3.973198         0.734331         1.698957
 O        -4.157342        -0.651821         1.604659
 C        -2.855006        -1.394026         1.603660
 C        -1.815421        -0.330176         1.937706
 H         0.501094        -0.903605         0.920973
 H        -1.965310         1.853475        -0.460582
 H        -2.476026         0.149487        -0.708144
 H        -0.763155         2.600557         1.431782
 H        -0.803372         1.431545         2.843947
 H        -4.501810         1.151356         2.612030
 H        -4.425085         1.324607         0.853034
 H        -3.063383        -2.164042         2.330677
 H        -2.761992        -1.913509         0.651958
 H        -1.285099        -0.429402         2.926435
