19
Iteration:   486charge 0 multiplicity 1
 O         0.531447        -0.029156         0.597847
 C        -0.762129         0.282606         0.918332
 C        -1.881924         0.803760        -0.035139
 C        -2.451924         0.947956         1.399874
 C        -1.083015         1.469013         1.911975
 C        -3.888155         0.873163         1.933678
 O        -4.285854        -0.557825         1.668720
 C        -3.150108        -1.361881         1.305796
 C        -1.896018        -0.524172         1.723827
 H         0.462178        -0.297350        -0.426748
 H        -1.537300         1.718208        -0.533706
 H        -2.316691         0.127836        -0.705764
 H        -0.563842         2.431691         1.746618
 H        -0.795116         1.115367         2.980740
 H        -3.958755         1.014784         3.007426
 H        -4.651161         1.514119         1.488206
 H        -3.142558        -2.348309         1.862474
 H        -3.074858        -1.619658         0.253056
 H        -1.659413        -0.857390         2.771327
