19
Iteration:  2640
 O         0.386387        -0.158783         0.365450
 C        -0.760816         0.278507         0.930442
 C        -1.988422         0.795682         0.090681
 C        -2.473345         1.001234         1.593977
 C        -1.028007         1.551224         1.890365
 C        -3.950583         0.808861         1.933412
 O        -4.216828        -0.544301         1.408668
 C        -2.941358        -1.374118         1.395735
 C        -1.857344        -0.434594         1.824548
 H         0.889664        -0.632206         1.064855
 H        -1.953228         1.790298        -0.265400
 H        -2.489728         0.144953        -0.544709
 H        -0.918039         2.566775         1.448264
 H        -0.575416         1.401451         2.873381
 H        -4.278814         0.925806         2.969574
 H        -4.637681         1.374279         1.285878
 H        -3.015261        -2.199354         2.163499
 H        -2.891650        -1.795343         0.414853
 H        -1.511707        -0.559182         2.882497
