19
Iteration:  3072
 O         0.472202        -0.238436         0.529395
 C        -0.780489         0.341056         0.890228
 C        -1.956663         0.711970        -0.081120
 C        -2.481381         0.869956         1.439273
 C        -1.235768         1.637111         1.818556
 C        -3.944628         0.855415         1.841053
 O        -4.122277        -0.513919         1.783963
 C        -3.004332        -1.372605         1.435856
 C        -1.836309        -0.481860         1.756108
 H         1.089961         0.413554         0.157986
 H        -1.958027         1.722024        -0.615408
 H        -2.326029        -0.096904        -0.681764
 H        -1.009607         2.631454         1.341437
 H        -0.907649         1.756336         2.838134
 H        -4.000156         1.143435         2.916590
 H        -4.656222         1.393106         1.233339
 H        -3.082028        -2.242362         2.064598
 H        -3.008133        -1.629780         0.323280
 H        -1.530765        -0.507763         2.818490
