19
Iteration:  2198
 O         0.373395        -0.248748         0.410388
 C        -0.839236         0.305476         0.980675
 C        -1.857671         1.074913         0.017145
 C        -2.468170         1.002449         1.478921
 C        -0.965861         1.454422         1.995437
 C        -3.984734         0.802922         1.784383
 O        -4.230943        -0.672460         1.857558
 C        -2.956636        -1.388342         1.157834
 C        -1.922404        -0.409389         1.694407
 H         0.904096        -0.884210         1.080634
 H        -1.617752         2.149019        -0.274689
 H        -2.394680         0.570698        -0.738183
 H        -0.489215         2.406180         1.798650
 H        -0.813983         1.430946         3.119145
 H        -4.470786         1.159318         2.734516
 H        -4.318106         1.230486         0.806063
 H        -2.774374        -2.435687         1.577062
 H        -3.202635        -1.220335         0.063107
 H        -1.835668        -0.496331         2.845788
