19
Iteration:  1184charge 0 multiplicity 1
 O         0.365175        -0.234113         0.348675
 C        -0.783489         0.278103         0.958510
 C        -2.060561         0.875030         0.132916
 C        -2.410442         0.869154         1.625876
 C        -1.104176         1.493059         2.073497
 C        -3.828230         0.829587         1.920562
 O        -4.130637        -0.416140         1.265474
 C        -2.992691        -1.323654         1.345661
 C        -1.874878        -0.511110         1.785119
 H         1.183662         0.023718         0.811230
 H        -2.090439         1.901996        -0.276562
 H        -2.683301         0.157165        -0.450298
 H        -1.185185         2.552982         1.768836
 H        -0.662696         1.176065         3.119800
 H        -4.016793         0.629803         3.024626
 H        -4.456220         1.594465         1.504123
 H        -3.310590        -2.002920         2.079604
 H        -2.989643        -1.672769         0.284505
 H        -1.551578        -0.791880         2.785633
