19
Iteration:  3957
 O         0.450337        -0.065208         0.701253
 C        -0.855993         0.279471         0.846122
 C        -1.931220         0.724028        -0.135997
 C        -2.494535         0.943263         1.349620
 C        -1.123658         1.603284         1.616633
 C        -3.865516         0.810230         2.023722
 O        -4.237195        -0.597444         1.722332
 C        -2.989449        -1.399627         1.507287
 C        -1.796236        -0.432641         1.747937
 H         0.703424        -0.307517        -0.108015
 H        -1.863105         1.683004        -0.768252
 H        -2.532698        -0.025979        -0.585722
 H        -0.847664         2.459214         0.996783
 H        -0.704411         1.682204         2.614756
 H        -3.800984         1.106488         3.086494
 H        -4.694026         1.408329         1.578947
 H        -3.106918        -2.328635         2.210384
 H        -2.988840        -1.789452         0.459143
 H        -1.562426        -0.334800         2.885903
