19
Iteration:  4539
 O         0.517116        -0.081990         0.512678
 C        -0.738310         0.294870         0.892486
 C        -1.892870         0.687365        -0.104731
 C        -2.483363         0.913981         1.368410
 C        -1.088638         1.599703         1.721295
 C        -3.942840         0.833545         1.950408
 O        -4.280972        -0.647267         1.816025
 C        -3.062037        -1.337898         1.417533
 C        -1.921318        -0.394798         1.730866
 H         1.142251        -0.033008         1.309328
 H        -1.623092         1.552199        -0.754961
 H        -2.254032        -0.147293        -0.657613
 H        -0.920768         2.559754         1.211953
 H        -0.650181         1.521509         2.722541
 H        -3.807591         1.062276         3.002854
 H        -4.680548         1.478911         1.631304
 H        -3.043557        -2.317927         1.999049
 H        -3.221977        -1.529708         0.329903
 H        -1.836161        -0.355950         2.832598
