19
Iteration:  4916
 O         0.457466        -0.143151         0.456945
 C        -0.833323         0.280742         0.946235
 C        -1.962006         0.669871         0.023262
 C        -2.455414         0.964636         1.439738
 C        -1.028395         1.648078         1.880376
 C        -3.866754         0.899128         1.832994
 O        -4.197815        -0.616526         1.637206
 C        -3.047337        -1.376702         1.450904
 C        -1.899623        -0.485719         1.826352
 H         0.785451         0.736522         0.020994
 H        -1.989872         1.517629        -0.752530
 H        -2.585731        -0.058831        -0.456532
 H        -0.653449         2.524639         1.330833
 H        -0.758109         1.675261         2.934682
 H        -4.130912         1.108589         2.874105
 H        -4.623826         1.129926         1.079897
 H        -3.036856        -2.318177         2.010838
 H        -3.025018        -1.712348         0.353467
 H        -1.685678        -0.368508         2.906753
