19
Iteration:  4542
 O         0.542355        -0.058371         0.521570
 C        -0.770132         0.279842         0.893765
 C        -1.863441         0.694564        -0.107297
 C        -2.480626         0.950468         1.340361
 C        -1.098801         1.572116         1.720330
 C        -3.926751         0.827268         1.955611
 O        -4.283189        -0.633574         1.828625
 C        -3.094598        -1.384709         1.431636
 C        -1.929573        -0.395868         1.716808
 H         1.065096         0.024459         1.244963
 H        -1.715972         1.622721        -0.702592
 H        -2.279278        -0.215197        -0.649127
 H        -0.835089         2.468337         1.193247
 H        -0.680984         1.575238         2.721320
 H        -3.781371         1.003547         3.048080
 H        -4.696202         1.547999         1.602601
 H        -3.068713        -2.326421         1.961654
 H        -3.123139        -1.525420         0.324241
 H        -1.733762        -0.344181         2.839958
