19
Iteration:  1578charge 0 multiplicity 1
 O         0.389840        -0.281820         0.548492
 C        -0.816580         0.275618         0.980056
 C        -1.896103         1.020857         0.071779
 C        -2.465283         0.975236         1.451795
 C        -1.115147         1.526039         1.900770
 C        -3.892004         0.814663         1.816681
 O        -4.172392        -0.607372         1.854479
 C        -3.048919        -1.364986         1.129744
 C        -1.859642        -0.541321         1.631260
 H         1.111972         0.461509         0.681085
 H        -1.556558         2.001946        -0.281689
 H        -2.526555         0.466923        -0.689961
 H        -0.700756         2.500753         1.581318
 H        -0.810076         1.463194         2.993600
 H        -4.054634         1.339764         2.792258
 H        -4.623076         1.221260         1.074145
 H        -3.117265        -2.338598         1.537718
 H        -3.251648        -1.287828         0.016513
 H        -1.495665        -0.802334         2.673768
