19
Iteration:  4144
 O         0.439077         0.001699         0.473218
 C        -0.800330         0.327637         0.854634
 C        -1.963158         0.699604        -0.036771
 C        -2.478369         0.948782         1.480728
 C        -1.088628         1.587621         1.714765
 C        -3.906240         0.851449         1.883900
 O        -4.168131        -0.592691         1.584252
 C        -3.009454        -1.465725         1.591575
 C        -1.850890        -0.423812         1.840255
 H         0.521244        -0.989740         0.554214
 H        -1.860374         1.612547        -0.610582
 H        -2.543688        -0.094344        -0.599846
 H        -0.773793         2.521232         1.293013
 H        -0.755696         1.593763         2.752464
 H        -4.197770         0.936283         2.900811
 H        -4.640947         1.458918         1.359886
 H        -3.082271        -2.146274         2.457565
 H        -3.115057        -2.094580         0.749594
 H        -1.384690        -0.353208         2.871000
