19
Iteration:  2421
 O         0.535327         0.029730         0.490467
 C        -0.787373         0.259733         0.916330
 C        -1.959215         0.868127        -0.038081
 C        -2.465474         0.913557         1.470943
 C        -0.987563         1.391846         1.954578
 C        -3.930979         0.805882         2.037904
 O        -4.229752        -0.501261         1.521622
 C        -3.094728        -1.365111         1.311831
 C        -1.930550        -0.517670         1.746429
 H         0.651847        -1.047453         0.633665
 H        -1.878789         1.832407        -0.475503
 H        -2.432150         0.254749        -0.801117
 H        -0.719009         2.471587         1.597171
 H        -0.663100         1.171067         2.946894
 H        -3.880223         1.033568         3.117175
 H        -4.740703         1.409163         1.591333
 H        -3.319658        -2.294153         1.922515
 H        -2.957102        -1.619850         0.215719
 H        -1.742983        -0.646611         2.856373
