19
Iteration:  3750charge 0 multiplicity 1
 O         0.425918        -0.116933         0.462175
 C        -0.707194         0.389850         0.853792
 C        -1.822516         0.806858        -0.065661
 C        -2.491697         0.919273         1.404260
 C        -1.212105         1.551690         1.965137
 C        -3.993807         0.835769         1.692058
 O        -4.123952        -0.559330         2.002756
 C        -3.022332        -1.398849         1.425635
 C        -1.835030        -0.513522         1.642894
 H         0.268834        -0.974874         0.309456
 H        -1.653187         1.853285        -0.453639
 H        -2.349866         0.108019        -0.725991
 H        -1.023377         2.533709         1.428071
 H        -0.912434         1.451927         3.006481
 H        -4.355510         1.451519         2.569267
 H        -4.584279         1.117453         0.786543
 H        -2.905678        -2.296589         2.099738
 H        -3.353513        -1.651479         0.439165
 H        -1.604046        -0.575497         2.698409
