19
Iteration:  4725charge 0 multiplicity 1
 O         0.572838        -0.005587         0.340503
 C        -0.769735         0.368231         0.865858
 C        -2.022485         0.581918         0.062854
 C        -2.438844         0.851993         1.579370
 C        -1.197509         1.580595         1.777027
 C        -3.887666         0.848083         1.920499
 O        -4.226514        -0.444288         1.466722
 C        -3.081560        -1.362458         1.531013
 C        -1.832639        -0.571777         1.867574
 H         1.048944        -0.575008         1.178172
 H        -2.242291         1.412311        -0.500363
 H        -2.285293        -0.348863        -0.500976
 H        -0.991025         2.539641         1.300957
 H        -0.809079         1.503296         2.834947
 H        -4.126619         1.123478         3.007292
 H        -4.356255         1.705634         1.369483
 H        -3.306661        -2.059132         2.345149
 H        -2.993072        -1.784984         0.561982
 H        -1.378969        -0.583330         2.825486
