19
Iteration:  2958
 O         0.385127        -0.237952         0.504257
 C        -0.847670         0.315907         0.966107
 C        -2.083139         0.755945         0.024827
 C        -2.494073         0.938308         1.488603
 C        -0.999425         1.619258         1.783758
 C        -3.933848         0.760959         1.853375
 O        -4.145259        -0.613153         1.448364
 C        -2.890661        -1.277858         1.519038
 C        -1.833022        -0.312372         1.903925
 H         0.233187        -0.257419        -0.405825
 H        -1.943069         1.748086        -0.479278
 H        -2.609770        -0.077416        -0.661879
 H        -0.683025         2.559781         1.451228
 H        -0.664715         1.340360         2.825441
 H        -4.064925         0.883107         2.958909
 H        -4.662919         1.379854         1.251119
 H        -2.934509        -1.961885         2.431307
 H        -2.703046        -1.806269         0.569391
 H        -1.488422        -0.506799         2.943122
