19
Iteration:  1580charge 0 multiplicity 1
 O         0.399701        -0.279461         0.544974
 C        -0.820659         0.282041         0.977966
 C        -1.883299         1.016969         0.082658
 C        -2.468739         0.988667         1.459551
 C        -1.100806         1.529368         1.900685
 C        -3.915632         0.818507         1.822406
 O        -4.175691        -0.626428         1.858163
 C        -3.047500        -1.355357         1.130063
 C        -1.862127        -0.545324         1.622697
 H         1.060145         0.349444         0.640257
 H        -1.515797         1.979896        -0.307597
 H        -2.500542         0.492282        -0.706748
 H        -0.653717         2.500872         1.600594
 H        -0.866087         1.440712         2.895655
 H        -4.072582         1.406555         2.796450
 H        -4.603137         1.195784         1.064653
 H        -3.065230        -2.335168         1.535663
 H        -3.272056        -1.333560         0.006869
 H        -1.578828        -0.747940         2.684211
