19
Iteration:  4320
 O         0.426772        -0.242489         0.599317
 C        -0.860190         0.290158         0.958753
 C        -1.852627         0.898357        -0.028939
 C        -2.560390         0.952674         1.397432
 C        -1.041241         1.670506         1.716454
 C        -4.054319         0.713498         1.635973
 O        -4.068794        -0.671406         2.059660
 C        -3.017405        -1.305705         1.320862
 C        -1.879437        -0.420971         1.812438
 H         0.509712         0.037474        -0.442327
 H        -1.439845         1.836744        -0.419469
 H        -2.340841         0.347030        -0.862756
 H        -0.520761         2.506502         1.272663
 H        -0.754204         1.472801         2.720035
 H        -4.362256         1.295283         2.570102
 H        -4.550178         0.927484         0.686688
 H        -2.951024        -2.338985         1.622590
 H        -3.219108        -1.220714         0.270701
 H        -1.577685        -0.546091         2.911989
