19
Iteration:  3938charge 0 multiplicity 1
 O         0.609773        -0.096592         0.549333
 C        -0.799310         0.306423         0.866412
 C        -1.982589         0.679741        -0.121525
 C        -2.512993         0.990811         1.488270
 C        -1.063118         1.622641         1.602930
 C        -4.009790         0.741112         1.994764
 O        -4.244789        -0.608129         1.651235
 C        -2.990520        -1.347593         1.549056
 C        -1.882540        -0.329214         1.843971
 H         0.594707        -0.809370         0.002915
 H        -1.686461         1.605452        -0.606764
 H        -2.353773        -0.009591        -0.878970
 H        -0.936553         2.545247         1.067136
 H        -0.667758         1.636919         2.637056
 H        -4.038601         0.879285         3.124779
 H        -4.804303         1.408591         1.713408
 H        -3.097672        -2.219886         2.222960
 H        -2.965095        -1.846734         0.590611
 H        -1.656806        -0.588811         2.837204
