19
Iteration:  3405charge 0 multiplicity 1
 O         0.453634        -0.211415         0.508217
 C        -0.749058         0.290911         0.946214
 C        -1.906224         0.832511         0.001508
 C        -2.498386         1.004762         1.409007
 C        -1.115821         1.636067         1.781143
 C        -3.954919         0.766896         1.777917
 O        -4.151077        -0.651179         1.872938
 C        -2.996553        -1.373727         1.391414
 C        -1.900307        -0.359280         1.773785
 H         0.078192        -0.685944        -0.294130
 H        -1.685341         1.792340        -0.572436
 H        -2.317775         0.093390        -0.634158
 H        -0.784734         2.603903         1.313281
 H        -0.901993         1.547462         2.839649
 H        -4.087380         1.364568         2.709516
 H        -4.650464         1.194758         1.001650
 H        -2.736238        -2.250329         2.008838
 H        -3.285140        -1.658626         0.357562
 H        -1.675585        -0.493813         2.816750
