19
Iteration:  2987
 O         0.340156        -0.313534         0.433749
 C        -0.805405         0.370170         0.985294
 C        -1.979812         0.799867         0.023113
 C        -2.483767         0.986494         1.512222
 C        -1.106247         1.736579         1.728345
 C        -3.910271         0.810526         1.925555
 O        -4.124539        -0.623817         1.416868
 C        -3.005355        -1.431791         1.581738
 C        -1.789771        -0.419078         1.880747
 H         0.871254         0.507724         0.119581
 H        -1.762229         1.692665        -0.507574
 H        -2.443622         0.083467        -0.674620
 H        -0.792301         2.655042         1.179338
 H        -0.733495         1.669601         2.756300
 H        -4.142310         0.883112         2.991445
 H        -4.690842         1.357878         1.372853
 H        -3.138472        -2.092173         2.467170
 H        -2.885226        -2.115557         0.746115
 H        -1.433453        -0.598347         2.891659
