19
Iteration:  4831
 O         0.434313        -0.146520         0.502649
 C        -0.875836         0.319061         0.912410
 C        -2.021308         0.669546        -0.017012
 C        -2.464279         0.962110         1.490315
 C        -1.112052         1.595186         1.740400
 C        -3.887005         0.810124         1.970457
 O        -4.254122        -0.553306         1.567220
 C        -2.921604        -1.297867         1.330689
 C        -1.751006        -0.437854         1.933957
 H         0.663659        -1.038716         0.863137
 H        -1.779503         1.655423        -0.526560
 H        -2.453373        -0.088579        -0.671254
 H        -0.915866         2.551528         1.228475
 H        -0.811599         1.617434         2.800543
 H        -4.024341         1.028167         3.042571
 H        -4.563127         1.525425         1.412894
 H        -3.035340        -2.331232         1.731979
 H        -2.778404        -1.410919         0.242124
 H        -1.456929        -0.465424         3.024527
