19
Iteration:  4676charge 0 multiplicity 1
 O         0.409111        -0.286538         0.492417
 C        -0.787139         0.342352         0.836847
 C        -1.961255         0.901936        -0.071772
 C        -2.479848         0.964799         1.403779
 C        -1.112725         1.672388         1.801105
 C        -3.959010         0.790133         1.950454
 O        -4.191366        -0.618406         1.599135
 C        -2.961242        -1.431592         1.508771
 C        -1.814478        -0.381768         1.833923
 H         0.591855        -0.921461         1.091289
 H        -1.646737         1.877646        -0.581569
 H        -2.469370         0.217770        -0.781913
 H        -0.979768         2.664775         1.327534
 H        -0.663608         1.616691         2.792509
 H        -4.011825         1.076930         3.020636
 H        -4.816420         1.354604         1.490113
 H        -2.968822        -2.174016         2.294958
 H        -2.950824        -1.832643         0.453801
 H        -1.327725        -0.416611         2.865969
