19
Iteration:  2593charge 0 multiplicity 1
 O         0.571710        -0.149257         0.589660
 C        -0.758411         0.356653         0.897603
 C        -1.963737         0.815575        -0.035727
 C        -2.476778         0.862203         1.516252
 C        -1.098467         1.483698         1.873569
 C        -3.917611         0.817571         1.991313
 O        -4.259668        -0.505277         1.593326
 C        -3.094460        -1.339142         1.345360
 C        -1.883248        -0.505544         1.654727
 H         0.766377         0.590933        -0.169241
 H        -1.682242         1.727004        -0.578948
 H        -2.361301        -0.037003        -0.626672
 H        -0.784313         2.423781         1.439440
 H        -0.906757         1.313331         2.876936
 H        -3.911643         0.861178         3.082931
 H        -4.664573         1.522535         1.576593
 H        -3.113974        -2.103867         2.164916
 H        -3.181383        -1.771794         0.324914
 H        -1.505856        -0.661275         2.669529
