19
Iteration:  1166charge 0 multiplicity 1
 O         0.348822        -0.259024         0.328098
 C        -0.779170         0.404686         0.934495
 C        -1.994025         0.867293         0.155250
 C        -2.423787         0.926666         1.656226
 C        -1.001508         1.499038         2.068377
 C        -3.925594         0.820594         1.960611
 O        -4.256682        -0.435793         1.246525
 C        -3.031136        -1.420863         1.299098
 C        -1.805777        -0.513816         1.843982
 H         1.089109         0.160227         0.781689
 H        -1.879435         1.787567        -0.456055
 H        -2.451918         0.101672        -0.408258
 H        -0.565682         2.512339         1.812950
 H        -0.812839         1.194048         3.016481
 H        -4.249255         0.790494         3.036753
 H        -4.451065         1.601702         1.347078
 H        -3.165948        -2.213790         2.103815
 H        -2.782089        -1.811849         0.307178
 H        -1.347113        -0.721400         2.832868
