19
Iteration:  2162
 O         0.466036        -0.168045         0.381739
 C        -0.732156         0.332625         0.918222
 C        -1.898295         0.920211         0.021752
 C        -2.454980         0.892558         1.518286
 C        -1.149116         1.497831         2.073724
 C        -3.900270         0.872627         1.841924
 O        -4.245387        -0.528047         1.788969
 C        -3.043526        -1.379348         1.209253
 C        -1.872443        -0.539676         1.631128
 H         1.018711        -0.609631         1.164498
 H        -1.628342         1.877035        -0.476421
 H        -2.280834         0.190083        -0.742426
 H        -0.947919         2.489981         1.812288
 H        -1.255252         1.205568         3.168816
 H        -4.216881         1.232184         2.847219
 H        -4.488947         1.490190         1.159401
 H        -3.026612        -2.359513         1.593202
 H        -3.176596        -1.490327         0.098006
 H        -1.583480        -0.761955         2.673994
