19
Iteration:   867charge 0 multiplicity 1
 O         0.373282        -0.104942         0.384632
 C        -0.801040         0.317191         0.944856
 C        -2.003523         0.889697         0.142711
 C        -2.386470         0.975784         1.681131
 C        -0.956924         1.478269         1.966453
 C        -3.924661         0.817255         1.876678
 O        -4.239249        -0.513567         1.334611
 C        -3.020678        -1.383352         1.383040
 C        -1.835818        -0.511953         1.731764
 H         0.315400        -1.065412         0.881914
 H        -1.779356         1.837083        -0.332898
 H        -2.520720         0.075583        -0.394243
 H        -0.824010         2.511488         1.712641
 H        -0.444168         1.245731         3.006606
 H        -4.315249         0.850885         2.861374
 H        -4.486157         1.427891         1.226296
 H        -3.118907        -2.062906         2.231268
 H        -3.085882        -1.918770         0.458685
 H        -1.402087        -0.703429         2.708078
