19
Iteration:  4902charge 0 multiplicity 1
 O         0.512843        -0.081373         0.432563
 C        -0.743310         0.289685         0.915523
 C        -1.930228         0.758344        -0.033997
 C        -2.458850         0.948429         1.445760
 C        -1.122623         1.482473         1.859430
 C        -3.958856         0.890009         1.793344
 O        -4.269027        -0.562501         1.670397
 C        -3.020073        -1.462019         1.551009
 C        -1.866376        -0.439408         1.811907
 H         0.743918         0.518266        -0.231990
 H        -1.629683         1.615940        -0.568443
 H        -2.360053        -0.051982        -0.607422
 H        -0.886119         2.537529         1.595041
 H        -0.896375         1.254349         2.905933
 H        -4.139174         1.314681         2.834749
 H        -4.501030         1.577369         1.157968
 H        -3.117288        -2.174901         2.360973
 H        -3.023290        -1.958923         0.588411
 H        -1.554630        -0.656675         2.805320
