19
Iteration:   398charge 0 multiplicity 1
 O         0.415661        -0.205502         0.384122
 C        -0.797750         0.335799         0.949623
 C        -1.855988         0.991325         0.007507
 C        -2.445431         0.944082         1.462085
 C        -1.077134         1.587806         1.938166
 C        -3.942353         0.817443         1.729242
 O        -4.235848        -0.611542         1.779918
 C        -3.050929        -1.390732         1.349242
 C        -1.863690        -0.547757         1.803518
 H         0.792179        -0.984929         1.036353
 H        -1.670869         1.909107        -0.490006
 H        -2.248259         0.286136        -0.707570
 H        -0.814367         2.564021         1.596900
 H        -0.679056         1.511221         3.033366
 H        -4.287436         1.238111         2.718019
 H        -4.567969         1.338136         0.957492
 H        -3.277254        -2.377251         1.797900
 H        -2.919269        -1.351246         0.314117
 H        -1.474318        -0.631589         2.848840
