19
Iteration:  1836
 O         0.512245        -0.123767         0.547755
 C        -0.797649         0.246062         0.972247
 C        -1.861624         0.849065        -0.008116
 C        -2.419213         0.962335         1.476325
 C        -1.034257         1.479446         1.913449
 C        -3.939594         0.851372         2.035143
 O        -4.280161        -0.578322         1.675086
 C        -3.041040        -1.342974         1.166198
 C        -1.985122        -0.515957         1.676105
 H         0.763268         0.288760        -0.374234
 H        -1.681804         1.845935        -0.454316
 H        -2.402484         0.108022        -0.702539
 H        -0.647455         2.379683         1.427168
 H        -0.714003         1.478765         3.069872
 H        -3.989858         0.971981         3.140775
 H        -4.732799         1.526459         1.558384
 H        -3.117326        -2.312948         1.673292
 H        -2.966478        -1.506898         0.125638
 H        -1.948520        -0.616879         2.803697
