19
Iteration:  3415charge 0 multiplicity 1
 O         0.410097        -0.187650         0.433536
 C        -0.833104         0.300215         0.976977
 C        -1.782027         0.838563        -0.019693
 C        -2.510174         0.972936         1.395970
 C        -1.093892         1.629650         1.785854
 C        -3.975050         0.840885         1.747389
 O        -4.153321        -0.688031         1.922869
 C        -2.973652        -1.375828         1.414402
 C        -1.939318        -0.372128         1.817357
 H         0.214381        -0.904317        -0.137539
 H        -1.341693         1.847717        -0.385698
 H        -2.289973         0.338617        -0.858843
 H        -0.812810         2.601417         1.293959
 H        -0.704223         1.567614         2.804067
 H        -4.388981         1.190418         2.738773
 H        -4.681227         1.076061         0.908948
 H        -2.868390        -2.341728         1.952668
 H        -2.849942        -1.573978         0.305351
 H        -1.764338        -0.517203         2.873603
