19
Iteration:  3183charge 0 multiplicity 1
 O         0.522849        -0.104548         0.513083
 C        -0.795167         0.258960         0.898594
 C        -1.922823         0.786861        -0.080092
 C        -2.462331         0.944199         1.377760
 C        -1.041231         1.565588         1.727327
 C        -3.947415         0.817231         1.830172
 O        -4.276904        -0.576479         1.830349
 C        -3.058935        -1.436789         1.492422
 C        -1.891545        -0.451328         1.836700
 H         0.962792         0.642906         0.154819
 H        -1.647873         1.694949        -0.645779
 H        -2.350443        -0.084783        -0.715554
 H        -0.887741         2.498853         1.128711
 H        -0.664154         1.630202         2.796708
 H        -4.054141         1.230954         2.833768
 H        -4.643893         1.280455         1.130600
 H        -3.252579        -2.327073         2.132997
 H        -2.988167        -1.683911         0.377667
 H        -1.643343        -0.522188         2.928789
