19
Iteration:   201charge 0 multiplicity 1
 O         0.519245        -0.040064         0.496896
 C        -0.765511         0.265552         0.872890
 C        -1.906857         0.668738        -0.068353
 C        -2.418074         0.947957         1.520261
 C        -0.997411         1.595844         1.737361
 C        -3.949249         0.739113         2.008876
 O        -4.365484        -0.514277         1.584300
 C        -3.095451        -1.338797         1.417515
 C        -1.899889        -0.450541         1.804614
 H         1.031540        -0.153632         1.217676
 H        -1.819659         1.644561        -0.649544
 H        -2.353009        -0.179084        -0.686713
 H        -0.604573         2.499756         1.284402
 H        -0.582841         1.547139         2.769227
 H        -3.988436         0.769202         3.050428
 H        -4.637263         1.466433         1.563244
 H        -3.184233        -2.312816         2.010610
 H        -3.115350        -1.716586         0.388555
 H        -1.489223        -0.538068         2.831659
