19
Iteration:  3016charge 0 multiplicity 1
 O         0.456545        -0.211228         0.494087
 C        -0.821556         0.364837         0.848833
 C        -2.083531         0.697482        -0.058063
 C        -2.473450         0.933259         1.497163
 C        -1.167856         1.590112         1.775957
 C        -3.865401         0.876961         1.921749
 O        -4.231084        -0.548526         1.468551
 C        -2.963992        -1.408998         1.617238
 C        -1.741440        -0.436691         1.837489
 H         1.107195         0.633695         0.627689
 H        -1.909987         1.601697        -0.748034
 H        -2.661106        -0.035583        -0.498021
 H        -0.806473         2.625961         1.459586
 H        -0.768054         1.335020         2.739047
 H        -4.055203         0.953288         3.014600
 H        -4.545134         1.525753         1.401931
 H        -3.124804        -2.127657         2.415553
 H        -2.815858        -1.980106         0.636960
 H        -1.291423        -0.497859         2.858084
