19
Iteration:  1317charge 0 multiplicity 1
 O         0.401890        -0.197000         0.484808
 C        -0.758869         0.294926         0.929406
 C        -1.831778         1.119648        -0.014825
 C        -2.453212         0.928143         1.470722
 C        -1.057622         1.397255         2.068270
 C        -3.920046         0.786913         1.783780
 O        -4.185416        -0.647269         1.848153
 C        -3.131629        -1.306313         1.178246
 C        -1.915691        -0.514401         1.602091
 H         1.092641        -0.079995         1.308687
 H        -1.421974         2.110456        -0.366550
 H        -2.289983         0.484205        -0.750313
 H        -0.704392         2.559640         1.816837
 H        -0.802999         1.163506         3.156712
 H        -4.219101         1.273514         2.714940
 H        -4.566889         1.161595         1.020628
 H        -3.313835        -2.316395         1.463850
 H        -3.349762        -1.289552         0.039726
 H        -1.728383        -0.754230         2.661258
