19
Iteration:  1718
 O         0.347351        -0.303035         0.481094
 C        -0.794447         0.392827         0.857582
 C        -2.000542         0.874140         0.097162
 C        -2.399268         0.879848         1.642559
 C        -1.100542         1.557016         1.945420
 C        -3.885119         0.811099         1.986667
 O        -4.262947        -0.453086         1.320015
 C        -2.952638        -1.402630         1.380222
 C        -1.776015        -0.480628         1.761187
 H         1.037768         0.102177        -0.069910
 H        -2.019680         1.897502        -0.294070
 H        -2.507285         0.194281        -0.673104
 H        -1.164331         2.597444         1.743578
 H        -0.551838         1.478740         2.965423
 H        -4.105675         0.774817         3.058462
 H        -4.394873         1.703752         1.518192
 H        -3.159457        -2.120816         2.294402
 H        -2.788077        -1.968445         0.451326
 H        -1.464683        -0.858213         2.731258
