19
Iteration:  4503
 O         0.288633        -0.253333         0.412202
 C        -0.860454         0.250170         0.887807
 C        -2.016601         0.836621         0.062391
 C        -2.467924         0.940698         1.506927
 C        -1.154608         1.701817         1.813076
 C        -3.885824         0.905969         1.709444
 O        -4.082477        -0.638346         1.673316
 C        -2.858129        -1.376779         1.489851
 C        -1.818001        -0.417000         1.867157
 H         0.815375        -0.795746         1.083359
 H        -1.633025         1.687583        -0.503536
 H        -2.645916         0.156255        -0.536988
 H        -1.055474         2.667949         1.213923
 H        -0.714494         1.849350         2.846198
 H        -4.168784         1.191938         2.708873
 H        -4.532420         1.200598         0.857910
 H        -2.830646        -2.307157         2.157570
 H        -2.800923        -1.779708         0.437267
 H        -1.661642        -0.418287         2.928138
