19
Iteration:  1918
 O         0.403128        -0.262993         0.441254
 C        -0.783073         0.341833         0.967053
 C        -1.870360         0.962299         0.013536
 C        -2.448333         0.940410         1.528869
 C        -1.035575         1.503642         1.981054
 C        -3.986071         0.806988         1.794260
 O        -4.295907        -0.617471         1.823970
 C        -3.034840        -1.340187         1.197845
 C        -1.855031        -0.476656         1.708408
 H         1.233315         0.413927         0.702931
 H        -1.534605         1.945330        -0.470719
 H        -2.161602         0.327665        -0.787972
 H        -0.674082         2.572717         1.692969
 H        -0.781582         1.153413         2.923382
 H        -4.376744         1.151470         2.786381
 H        -4.446546         1.370593         0.937561
 H        -3.067514        -2.355664         1.604549
 H        -3.028030        -1.343586         0.035429
 H        -1.395179        -0.731796         2.650997
