19
Iteration:   606
 O         0.465448        -0.236708         0.498036
 C        -0.846536         0.340382         0.875803
 C        -2.014332         0.878046         0.079388
 C        -2.426552         0.883813         1.617320
 C        -1.069368         1.486453         1.927390
 C        -3.915748         0.897128         1.950168
 O        -4.235224        -0.470816         1.382075
 C        -3.022614        -1.409329         1.371108
 C        -1.809920        -0.538159         1.781156
 H         1.223553         0.534604         0.313318
 H        -2.012725         1.869394        -0.365585
 H        -2.590560         0.212517        -0.488387
 H        -0.807835         2.381590         1.557633
 H        -0.527593         1.440446         2.893964
 H        -4.161413         1.054507         3.008215
 H        -4.544946         1.564605         1.358364
 H        -3.202587        -2.376620         1.957716
 H        -3.073092        -1.664923         0.276328
 H        -1.394130        -0.874025         2.775784
