19
Iteration:  3788charge 0 multiplicity 1
 O         0.477669        -0.098791         0.559888
 C        -0.840644         0.295785         0.903197
 C        -1.891651         0.762900        -0.027199
 C        -2.486991         0.886815         1.445193
 C        -0.998494         1.564763         1.698985
 C        -4.014068         0.850233         1.856770
 O        -4.230655        -0.624104         1.840813
 C        -2.990343        -1.355079         1.424884
 C        -1.867121        -0.414730         1.756591
 H         0.673334        -0.121916        -0.415403
 H        -1.595526         1.681039        -0.517871
 H        -2.408047         0.022045        -0.700570
 H        -0.993811         2.545955         1.241559
 H        -0.622581         1.557072         2.764103
 H        -4.170014         1.155579         2.870605
 H        -4.747193         1.269147         1.171071
 H        -3.019883        -2.296889         1.948697
 H        -3.010384        -1.506388         0.292482
 H        -1.651501        -0.543409         2.850468
