19
Iteration:   974charge 0 multiplicity 1
 O         0.419047        -0.242376         0.543253
 C        -0.798281         0.372623         0.908385
 C        -1.989424         0.963392         0.016099
 C        -2.407631         0.883847         1.567992
 C        -0.985526         1.471995         1.964655
 C        -3.858851         0.891468         1.826354
 O        -4.259690        -0.585504         1.679642
 C        -3.065959        -1.357510         1.184860
 C        -1.903700        -0.521276         1.697835
 H         1.197208         0.424222         0.891946
 H        -1.853635         1.941571        -0.543295
 H        -2.502851         0.227722        -0.620723
 H        -0.865535         2.480186         1.742868
 H        -0.596869         1.088056         2.956704
 H        -4.136991         1.107220         2.937492
 H        -4.517036         1.488996         1.195461
 H        -3.063383        -2.295578         1.758325
 H        -3.203893        -1.535417         0.043996
 H        -1.563752        -0.854956         2.680709
