19
Iteration:  1708
 O         0.367557        -0.253754         0.524536
 C        -0.808912         0.386528         0.895096
 C        -1.963827         0.933575         0.079370
 C        -2.414595         0.842846         1.586230
 C        -1.141950         1.597572         1.916322
 C        -3.802656         0.862361         1.998807
 O        -4.247379        -0.519679         1.367234
 C        -3.030436        -1.364475         1.343709
 C        -1.820084        -0.581994         1.751464
 H         0.816950         0.144577        -0.169773
 H        -1.796073         1.919618        -0.357731
 H        -2.421705         0.092422        -0.541502
 H        -0.781898         2.532441         1.407509
 H        -0.801824         1.267515         3.001342
 H        -3.901486         0.720176         3.065189
 H        -4.462903         1.696658         1.636978
 H        -3.069343        -2.075861         2.261915
 H        -3.023063        -2.013692         0.435225
 H        -1.364203        -0.740919         2.736545
