19
Iteration:  2039charge 0 multiplicity 1
 O         0.338730        -0.220102         0.295755
 C        -0.792360         0.335000         0.951011
 C        -2.020199         0.889013         0.207397
 C        -2.439694         0.998984         1.684380
 C        -0.915336         1.556424         1.988417
 C        -3.989682         0.849156         1.872450
 O        -4.228867        -0.573390         1.307247
 C        -2.953435        -1.415343         1.360127
 C        -1.839484        -0.465463         1.854833
 H         0.852449        -0.717792         0.819699
 H        -1.784122         1.697416        -0.497790
 H        -2.637827         0.183003        -0.427627
 H        -0.710397         2.618766         1.575844
 H        -0.560801         1.390690         2.957675
 H        -4.140942         0.796952         2.973418
 H        -4.614209         1.605301         1.364875
 H        -3.257629        -2.215601         1.981015
 H        -2.724548        -1.686649         0.336518
 H        -1.448284        -0.661085         2.833560
