19
Iteration:  3222charge 0 multiplicity 1
 O         0.384005        -0.221426         0.620236
 C        -0.826933         0.319974         0.863547
 C        -2.060174         0.685232        -0.077493
 C        -2.494430         0.944964         1.415679
 C        -1.138164         1.619221         1.701695
 C        -3.895217         0.835122         1.963205
 O        -4.196920        -0.467913         1.597734
 C        -2.881577        -1.389699         1.532257
 C        -1.726955        -0.541902         1.779836
 H         0.962735         0.660967         0.343504
 H        -2.020072         1.577369        -0.765673
 H        -2.468252        -0.062512        -0.649895
 H        -1.098510         2.595109         1.196276
 H        -0.814732         1.615537         2.719124
 H        -3.961536         0.998073         3.085068
 H        -4.569086         1.581005         1.496290
 H        -3.039600        -2.237380         2.225317
 H        -3.021225        -1.690650         0.523344
 H        -1.348869        -0.404497         2.798783
