19
Iteration:  1343charge 0 multiplicity 1
 O         0.447819        -0.150751         0.473095
 C        -0.750911         0.280742         0.957257
 C        -1.856388         0.992295         0.024247
 C        -2.450039         0.874020         1.501744
 C        -1.196467         1.391308         2.031732
 C        -3.892565         0.906284         1.853151
 O        -4.163214        -0.534027         1.822425
 C        -3.108393        -1.329369         1.099921
 C        -1.883562        -0.600714         1.600694
 H         1.228062         0.338373         1.078542
 H        -1.636108         1.994205        -0.265900
 H        -2.299521         0.306327        -0.742197
 H        -0.865559         2.470955         1.897132
 H        -1.042657         1.075607         3.040084
 H        -4.186536         1.434177         2.843113
 H        -4.493488         1.334011         0.986438
 H        -3.308700        -2.318997         1.651410
 H        -3.353783        -1.398566         0.052330
 H        -1.599950        -1.171832         2.510742
