19
Iteration:  1795
 O         0.501830        -0.285457         0.503354
 C        -0.773232         0.325107         0.879998
 C        -2.022463         0.935526         0.096217
 C        -2.483632         0.866080         1.569772
 C        -1.145050         1.567258         2.005673
 C        -3.867622         0.869156         1.955173
 O        -4.233426        -0.489096         1.461560
 C        -3.018106        -1.420246         1.329038
 C        -1.820382        -0.470676         1.667209
 H         0.733983         0.208300        -0.351803
 H        -1.844585         1.911992        -0.430082
 H        -2.548548         0.063720        -0.423407
 H        -0.965579         2.516465         1.626027
 H        -0.713419         1.258690         3.027570
 H        -4.018702         0.936915         3.056932
 H        -4.462932         1.698688         1.450579
 H        -2.958443        -2.328633         2.125916
 H        -3.156122        -1.969686         0.349381
 H        -1.460127        -0.685596         2.692843
