19
Iteration:  3058
 O         0.434246        -0.142536         0.524029
 C        -0.817299         0.308533         0.869209
 C        -1.926268         0.681067        -0.059063
 C        -2.438771         0.907334         1.419686
 C        -1.081841         1.681965         1.733072
 C        -3.840050         0.870071         1.902035
 O        -4.325776        -0.631870         1.699255
 C        -3.033075        -1.366952         1.464743
 C        -1.806712        -0.489853         1.885593
 H         0.977514         0.685895         0.324684
 H        -1.727318         1.711527        -0.651856
 H        -2.295497        -0.019496        -0.800848
 H        -1.047040         2.639029         1.255419
 H        -0.887180         1.567499         2.780144
 H        -3.989551         1.224043         2.949962
 H        -4.516618         1.476795         1.292990
 H        -3.105555        -2.338093         1.992033
 H        -3.047801        -1.701877         0.389608
 H        -1.438746        -0.683021         2.920149
