19
Iteration:  2650
 O         0.397497        -0.191676         0.364748
 C        -0.822581         0.376699         0.910639
 C        -2.000439         0.805141         0.135246
 C        -2.413676         0.966438         1.620196
 C        -1.006814         1.608574         1.901712
 C        -4.009638         0.851167         1.904977
 O        -4.268423        -0.579994         1.378139
 C        -2.902420        -1.425885         1.436152
 C        -1.794891        -0.434796         1.813764
 H         0.482922        -0.982099         0.812089
 H        -1.628429         1.590965        -0.482649
 H        -2.592207         0.171899        -0.412521
 H        -0.824818         2.654290         1.616374
 H        -0.621628         1.446292         2.834881
 H        -4.224482         0.950545         2.961036
 H        -4.628187         1.559851         1.324791
 H        -3.028275        -2.353764         2.057074
 H        -2.756375        -1.778458         0.447456
 H        -1.506601        -0.589726         2.872902
