19
Iteration:  1349
 O         0.493239        -0.135776         0.470685
 C        -0.738057         0.295722         0.966321
 C        -1.882638         0.961727         0.016509
 C        -2.442220         0.847934         1.507428
 C        -1.116281         1.360649         2.050018
 C        -3.976823         0.894728         1.880754
 O        -4.197827        -0.543856         1.794814
 C        -3.152481        -1.307835         1.136010
 C        -1.843763        -0.560108         1.583286
 H         1.167713         0.316490         0.951909
 H        -1.556940         1.936797        -0.459977
 H        -2.184385         0.281817        -0.769191
 H        -0.939581         2.443852         1.716937
 H        -0.926587         1.091284         3.122262
 H        -4.232912         1.291322         2.832194
 H        -4.548071         1.348458         1.094097
 H        -3.359086        -2.255156         1.565505
 H        -3.275391        -1.262678         0.011388
 H        -1.708449        -0.950470         2.610161
