19
Iteration:  2336charge 0 multiplicity 1
 O         0.334371        -0.265489         0.310578
 C        -0.815511         0.423862         0.969230
 C        -2.017576         0.854590         0.147613
 C        -2.454439         1.002061         1.646391
 C        -0.944077         1.524677         1.968716
 C        -3.933555         0.732771         1.967627
 O        -4.196297        -0.495973         1.284854
 C        -2.977786        -1.392613         1.357406
 C        -1.870959        -0.458883         1.851964
 H         1.104751        -0.120273         0.710681
 H        -1.796830         1.801664        -0.480625
 H        -2.333789         0.063578        -0.511812
 H        -0.668898         2.528725         1.892072
 H        -0.853211         1.312820         3.022028
 H        -4.120211         0.818491         3.049460
 H        -4.476925         1.397886         1.324467
 H        -3.309459        -2.151182         2.001979
 H        -2.800666        -1.722007         0.339150
 H        -1.459706        -0.696599         2.805150
