19
Iteration:  2036charge 0 multiplicity 1
 O         0.332486        -0.202148         0.296847
 C        -0.795193         0.338068         0.941165
 C        -2.016038         0.858772         0.205608
 C        -2.446131         0.985793         1.670501
 C        -0.928893         1.541322         1.985194
 C        -3.972773         0.842082         1.890035
 O        -4.227481        -0.559364         1.314186
 C        -2.963722        -1.397065         1.340652
 C        -1.823362        -0.435587         1.845543
 H         0.885968        -0.859199         0.883938
 H        -1.700443         1.666450        -0.501655
 H        -2.657003         0.225828        -0.345733
 H        -0.792218         2.622130         1.668966
 H        -0.572006         1.361319         3.007124
 H        -4.216207         0.842687         2.939610
 H        -4.588980         1.566240         1.314336
 H        -3.199580        -2.229747         2.070475
 H        -2.707536        -1.773745         0.385153
 H        -1.449812        -0.747150         2.843132
