19
Iteration:  4095charge 0 multiplicity 1
 O         0.526680        -0.098386         0.654597
 C        -0.822710         0.315027         0.886305
 C        -1.894029         0.642826        -0.173852
 C        -2.571276         0.994151         1.357350
 C        -1.073167         1.589343         1.664322
 C        -3.923517         0.786221         1.985259
 O        -4.209788        -0.599251         1.856337
 C        -2.995031        -1.332450         1.438072
 C        -1.929378        -0.451154         1.762634
 H         0.748214         0.386105        -0.236698
 H        -1.636079         1.396438        -0.938945
 H        -2.241357        -0.270588        -0.640181
 H        -0.990727         2.538216         1.056693
 H        -0.510306         1.788758         2.596903
 H        -3.977685         1.145334         3.041881
 H        -4.782756         1.286309         1.474136
 H        -2.968023        -2.324181         1.913778
 H        -3.241233        -1.522615         0.366823
 H        -1.627345        -0.505706         2.769354
