19
Iteration:  1960charge 0 multiplicity 1
 O         0.467747        -0.094156         0.507179
 C        -0.804398         0.337476         0.861048
 C        -1.891528         0.827739        -0.027562
 C        -2.452942         0.960553         1.478730
 C        -1.055452         1.463842         1.899602
 C        -3.898782         0.838486         1.995654
 O        -4.314612        -0.548772         1.685067
 C        -3.036863        -1.366549         1.214011
 C        -1.862210        -0.560007         1.723182
 H         1.072885        -0.167136         1.234607
 H        -1.743426         1.892556        -0.442402
 H        -2.401379         0.142135        -0.660664
 H        -0.658740         2.496242         1.676059
 H        -0.760707         1.087289         2.899148
 H        -3.925387         1.127569         3.070276
 H        -4.560873         1.558288         1.434485
 H        -3.196774        -2.377086         1.622795
 H        -3.144104        -1.485973         0.164959
 H        -1.775240        -0.718719         2.787069
