19
Iteration:  3129charge 0 multiplicity 1
 O         0.423985        -0.299595         0.575699
 C        -0.784490         0.285139         0.920102
 C        -1.896258         0.883179        -0.012786
 C        -2.475229         1.021943         1.402415
 C        -1.088287         1.655748         1.762857
 C        -4.025530         0.797659         1.705783
 O        -4.163963        -0.712879         2.021738
 C        -2.978657        -1.323420         1.383776
 C        -1.865175        -0.388242         1.692616
 H         0.816890        -0.031695        -0.225728
 H        -1.640291         1.826466        -0.388624
 H        -2.264719         0.242544        -0.893470
 H        -0.964890         2.626304         1.199805
 H        -0.863948         1.573538         2.877135
 H        -4.487317         1.325722         2.522642
 H        -4.618044         1.017988         0.796355
 H        -2.774918        -2.290154         1.886535
 H        -3.075953        -1.529543         0.275017
 H        -1.589139        -0.469540         2.759435
