19
Iteration:   415
 O         0.317858        -0.221911         0.458678
 C        -0.834875         0.290132         0.971560
 C        -1.841145         0.868859         0.034507
 C        -2.453554         1.066284         1.476012
 C        -1.014298         1.539670         1.902582
 C        -3.915322         0.821205         1.778158
 O        -4.168854        -0.667291         1.819525
 C        -3.047656        -1.342682         1.227363
 C        -1.890838        -0.426085         1.705236
 H         1.080079        -0.158026         1.264765
 H        -1.479893         1.887053        -0.286353
 H        -2.522924         0.201687        -0.599489
 H        -0.645747         2.494646         1.436677
 H        -0.825549         1.447394         2.937262
 H        -4.204799         1.256618         2.717084
 H        -4.499477         1.211910         0.946245
 H        -2.921781        -2.305721         1.733046
 H        -3.258115        -1.632983         0.107176
 H        -1.803426        -0.701827         2.752318
