19
Iteration:  3923
 O         0.496391        -0.080396         0.461279
 C        -0.769792         0.346108         0.858565
 C        -1.995359         0.695226         0.023753
 C        -2.485959         0.936426         1.389494
 C        -1.084948         1.662764         1.722012
 C        -3.900848         0.789163         1.908557
 O        -4.237749        -0.604398         1.588429
 C        -3.018006        -1.392196         1.563133
 C        -1.834556        -0.405328         1.910134
 H         0.362152        -1.060502         0.331776
 H        -2.079789         1.529168        -0.759720
 H        -2.533909        -0.176443        -0.329840
 H        -0.872339         2.605377         1.180035
 H        -0.663962         1.696343         2.724233
 H        -3.917903         0.940770         2.996454
 H        -4.687801         1.337324         1.343929
 H        -3.024906        -2.225886         2.351404
 H        -2.908361        -1.814298         0.520917
 H        -1.401497        -0.168649         2.937307
