19
Iteration:  4901charge 0 multiplicity 1
 O         0.514735        -0.077814         0.433504
 C        -0.742658         0.291921         0.906868
 C        -1.925431         0.765172        -0.031162
 C        -2.467310         0.945051         1.442326
 C        -1.125437         1.473295         1.860026
 C        -3.958196         0.884718         1.788799
 O        -4.273595        -0.555732         1.674346
 C        -3.017119        -1.456575         1.552538
 C        -1.861817        -0.441406         1.814303
 H         0.733941         0.479970        -0.227008
 H        -1.636038         1.618085        -0.551541
 H        -2.328588        -0.052101        -0.653774
 H        -0.911799         2.530935         1.595902
 H        -0.878968         1.246043         2.912331
 H        -4.137977         1.275712         2.841708
 H        -4.488832         1.579711         1.149959
 H        -3.131860        -2.156573         2.381991
 H        -3.030523        -1.978972         0.620861
 H        -1.538545        -0.667480         2.803028
