19
Iteration:  4937charge 0 multiplicity 1
 O         0.360941        -0.281378         0.571461
 C        -0.828329         0.358000         0.958657
 C        -1.977257         0.741736         0.017770
 C        -2.472694         0.900185         1.573238
 C        -1.116342         1.625069         1.622318
 C        -3.954837         0.830737         1.921320
 O        -4.196574        -0.564738         1.619897
 C        -2.878632        -1.341585         1.341349
 C        -1.801159        -0.417855         1.846023
 H         0.987788         0.330568         0.419920
 H        -1.756166         1.670938        -0.572455
 H        -2.538363         0.151846        -0.663181
 H        -0.941141         2.605341         1.164231
 H        -0.771546         1.601832         2.657141
 H        -4.070322         1.079112         3.017898
 H        -4.662285         1.365837         1.250182
 H        -2.896739        -2.309841         1.816724
 H        -2.914198        -1.502815         0.242983
 H        -1.386433        -0.533010         2.846292
