19
Iteration:   990charge 0 multiplicity 1
 O         0.430530        -0.201424         0.469156
 C        -0.767130         0.276012         0.949688
 C        -1.865697         0.884617         0.075849
 C        -2.455254         1.020760         1.460598
 C        -0.950838         1.448899         2.045108
 C        -3.974636         0.779413         1.867685
 O        -4.256207        -0.616885         1.694856
 C        -3.113427        -1.303264         1.219528
 C        -1.913697        -0.451045         1.666260
 H         1.081639         0.576888         0.372458
 H        -1.684048         1.863250        -0.337116
 H        -2.373366         0.299174        -0.701998
 H        -0.346275         2.368935         1.676248
 H        -0.810460         1.297756         3.093551
 H        -4.194868         1.175532         2.796758
 H        -4.530200         1.373991         1.121162
 H        -3.221575        -2.338899         1.619711
 H        -3.179317        -1.480186         0.188564
 H        -1.712807        -0.630699         2.736327
