19
Iteration:   997charge 0 multiplicity 1
 O         0.447655        -0.209277         0.441919
 C        -0.754422         0.272962         0.970285
 C        -1.813168         0.950615         0.082819
 C        -2.447662         1.025267         1.472532
 C        -0.991139         1.419663         1.991562
 C        -4.001189         0.792618         1.836738
 O        -4.253201        -0.599673         1.712089
 C        -3.073556        -1.315007         1.229496
 C        -1.939760        -0.483670         1.718939
 H         0.824592         0.584963         0.256638
 H        -1.458557         1.837284        -0.495880
 H        -2.256258         0.211629        -0.662338
 H        -0.671903         2.361168         1.699954
 H        -0.846819         1.160784         3.097264
 H        -4.255811         1.134159         2.934215
 H        -4.714665         1.296034         1.200855
 H        -3.254690        -2.270346         1.673253
 H        -3.202839        -1.319356         0.067898
 H        -1.689587        -0.723213         2.742214
