19
Iteration:  1271charge 0 multiplicity 1
 O         0.408778        -0.095174         0.468048
 C        -0.825290         0.333403         0.996842
 C        -1.890129         0.928595         0.062591
 C        -2.409959         0.927677         1.526544
 C        -1.109874         1.455313         1.976052
 C        -3.821210         0.825470         1.825073
 O        -4.198956        -0.580470         1.722407
 C        -3.137081        -1.322921         1.148141
 C        -1.875028        -0.551449         1.686415
 H         0.641429        -1.017152         1.002682
 H        -1.686359         2.007293        -0.136456
 H        -2.186122         0.291754        -0.792488
 H        -0.760566         2.489781         1.621272
 H        -0.864219         1.147011         3.095265
 H        -4.113390         1.078262         2.801881
 H        -4.336451         1.467152         1.134828
 H        -3.154502        -2.376725         1.431463
 H        -3.092793        -1.287683         0.008633
 H        -1.649404        -0.851838         2.730242
