19
Iteration:   126charge 0 multiplicity 1
 O         0.346869        -0.223217         0.413861
 C        -0.808561         0.302736         1.008084
 C        -1.881040         0.861846         0.040782
 C        -2.444980         1.008918         1.508385
 C        -0.934393         1.673390         1.845502
 C        -3.990069         0.739192         1.740016
 O        -4.224873        -0.632464         1.783539
 C        -2.959745        -1.397219         1.318142
 C        -1.926591        -0.367425         1.794014
 H         0.693919        -1.117324         0.973725
 H        -1.542694         1.711717        -0.725789
 H        -2.448430         0.094330        -0.633592
 H        -0.730843         2.505126         1.185894
 H        -0.752403         1.954820         2.926928
 H        -4.459823         1.229600         2.711662
 H        -4.482701         1.203832         0.832242
 H        -2.903564        -2.245706         2.061473
 H        -3.049518        -1.687128         0.218568
 H        -1.600223        -0.528929         2.839563
