19
Iteration:  1457charge 0 multiplicity 1
 O         0.331528        -0.118829         0.382825
 C        -0.840549         0.252949         0.978102
 C        -1.973755         1.004757         0.133337
 C        -2.414314         0.914135         1.625522
 C        -0.914961         1.496493         1.939122
 C        -3.973655         0.745583         1.969721
 O        -4.205314        -0.503385         1.190668
 C        -2.981792        -1.340730         1.412229
 C        -1.889056        -0.537991         1.903723
 H         0.336819        -1.086161         0.331890
 H        -1.688765         2.055596        -0.164766
 H        -2.599008         0.450928        -0.554335
 H        -0.542542         2.283618         1.423304
 H        -0.284685         1.318748         2.838561
 H        -4.207388         0.775493         3.092840
 H        -4.515697         1.602493         1.445127
 H        -3.197701        -2.183316         2.070989
 H        -2.649659        -1.751463         0.421506
 H        -1.485720        -0.640604         2.966387
