19
Iteration:  3237charge 0 multiplicity 1
 O         0.325536        -0.261916         0.524488
 C        -0.902866         0.305126         0.895484
 C        -1.992179         0.673730        -0.046650
 C        -2.440836         0.916287         1.429704
 C        -1.270161         1.705110         1.743249
 C        -3.759555         0.842664         1.957379
 O        -4.100964        -0.545980         1.532203
 C        -2.945567        -1.349455         1.499371
 C        -1.791730        -0.388953         1.891303
 H         0.928888         0.293067         0.081319
 H        -1.727335         1.637621        -0.546955
 H        -2.588047        -0.164885        -0.665272
 H        -0.984480         2.641607         1.298332
 H        -0.939503         1.720229         2.798389
 H        -3.737752         1.014635         3.073750
 H        -4.553649         1.431433         1.502641
 H        -3.130526        -2.139965         2.236571
 H        -2.820301        -1.993370         0.570894
 H        -1.474815        -0.685207         2.905192
