19
Iteration:   672charge 0 multiplicity 1
 O         0.546729        -0.231995         0.539662
 C        -0.765438         0.264754         0.950198
 C        -1.806775         0.917416         0.065941
 C        -2.481932         0.939921         1.439344
 C        -1.207093         1.514847         1.989676
 C        -3.899064         0.827438         1.902993
 O        -4.209591        -0.600648         1.736850
 C        -3.122283        -1.249297         1.220384
 C        -1.910137        -0.488621         1.603800
 H         0.414162        -0.399680        -0.343155
 H        -1.662829         1.851036        -0.427267
 H        -2.304601         0.364343        -0.703364
 H        -0.789054         2.373667         1.595783
 H        -1.004227         1.470950         3.111604
 H        -3.967294         1.154387         3.021334
 H        -4.648795         1.483403         1.421543
 H        -3.015911        -2.324930         1.648200
 H        -3.191510        -1.447321         0.105015
 H        -1.573876        -0.639406         2.689348
