19
Iteration:   594
 O         0.300520        -0.229536         0.459255
 C        -0.785285         0.329600         0.951172
 C        -2.005467         0.870319         0.083448
 C        -2.401824         0.877890         1.590713
 C        -1.001686         1.558022         1.923150
 C        -3.829716         0.773769         1.901273
 O        -4.232487        -0.501428         1.357996
 C        -3.060933        -1.312908         1.347513
 C        -1.833340        -0.514645         1.823699
 H         1.047078         0.418823         0.571889
 H        -1.832697         1.886319        -0.292973
 H        -2.428077         0.218402        -0.612644
 H        -0.999852         2.500713         1.574543
 H        -0.603591         1.341554         2.953182
 H        -3.925432         0.704262         3.010359
 H        -4.437938         1.556246         1.482224
 H        -3.266059        -2.082465         2.148327
 H        -2.869976        -1.852101         0.375658
 H        -1.426391        -0.698489         2.852527
