19
Iteration:  3889charge 0 multiplicity 1
 O         0.356910        -0.104772         0.322050
 C        -0.854133         0.246989         0.827688
 C        -2.034509         0.755592         0.063994
 C        -2.439154         0.907836         1.544188
 C        -1.131251         1.615371         1.781843
 C        -4.000181         0.847849         1.797003
 O        -4.082456        -0.549039         1.482650
 C        -2.912483        -1.350205         1.698329
 C        -1.746941        -0.419098         1.953026
 H         0.737714        -0.880664         1.005173
 H        -1.851733         1.637340        -0.588347
 H        -2.609003        -0.079659        -0.454249
 H        -0.988981         2.557862         1.205163
 H        -0.618659         1.536036         2.749047
 H        -4.534434         1.107738         2.709979
 H        -4.569598         1.432145         1.021023
 H        -3.099222        -2.220927         2.401832
 H        -2.812438        -1.918283         0.690744
 H        -1.285168        -0.668579         2.984519
