19
Iteration:  3939
 O         0.608915        -0.094165         0.558910
 C        -0.802447         0.297057         0.864873
 C        -1.982145         0.685953        -0.127748
 C        -2.507254         0.986911         1.483990
 C        -1.062493         1.622558         1.598219
 C        -4.010428         0.745060         2.006596
 O        -4.246608        -0.608551         1.653984
 C        -2.985327        -1.346235         1.547738
 C        -1.891735        -0.333142         1.841079
 H         0.581733        -0.769756        -0.013472
 H        -1.663331         1.572687        -0.605931
 H        -2.353770        -0.009280        -0.913743
 H        -0.924022         2.548816         1.050245
 H        -0.692580         1.651309         2.653173
 H        -4.062618         0.868169         3.135370
 H        -4.796283         1.422586         1.702136
 H        -3.051159        -2.192882         2.206773
 H        -2.970638        -1.849012         0.595733
 H        -1.625613        -0.604737         2.813199
