19
Iteration:  2430
 O         0.512184         0.050267         0.508607
 C        -0.797508         0.306674         0.893303
 C        -1.910438         0.834841         0.069699
 C        -2.472045         0.861426         1.445142
 C        -1.019479         1.388213         1.891645
 C        -3.840318         0.815458         1.989113
 O        -4.246288        -0.483300         1.572107
 C        -3.091945        -1.375754         1.286657
 C        -2.013081        -0.521599         1.761847
 H         0.616029        -1.038511         0.449690
 H        -1.653354         1.804282        -0.262355
 H        -2.269333         0.189825        -0.778121
 H        -0.835384         2.495601         1.448562
 H        -0.738567         1.370163         2.960053
 H        -3.808292         0.806660         3.090601
 H        -4.606585         1.516657         1.574424
 H        -3.143427        -2.384180         1.789813
 H        -3.053256        -1.457541         0.179426
 H        -1.691796        -0.788299         2.807910
