19
Iteration:  3524
 O         0.461420        -0.173030         0.555537
 C        -0.779818         0.336827         0.892719
 C        -1.998033         0.737848        -0.030497
 C        -2.440187         0.903508         1.403849
 C        -1.138199         1.638118         1.795916
 C        -3.840613         0.811958         1.957941
 O        -4.246120        -0.546254         1.682045
 C        -3.080834        -1.379050         1.409709
 C        -1.788499        -0.496758         1.694815
 H         0.979972         0.531815         0.437068
 H        -1.818703         1.725173        -0.681695
 H        -2.420884        -0.115669        -0.505419
 H        -0.965839         2.610348         1.274016
 H        -0.813816         1.543525         2.816162
 H        -3.857635         0.934014         3.084330
 H        -4.662604         1.420132         1.547124
 H        -2.963685        -2.120859         2.167688
 H        -3.346574        -1.834034         0.411210
 H        -1.448011        -0.533891         2.757102
