19
Iteration:  3036charge 0 multiplicity 1
 O         0.518181        -0.097601         0.498056
 C        -0.781049         0.254733         0.877126
 C        -2.024397         0.678701         0.012099
 C        -2.486578         0.972512         1.449323
 C        -0.986343         1.544376         1.720866
 C        -3.968323         0.791397         1.911772
 O        -4.186874        -0.541804         1.611235
 C        -3.021646        -1.370972         1.518565
 C        -1.925702        -0.419001         1.810479
 H         0.949199         0.768800         0.530424
 H        -1.893154         1.642216        -0.646409
 H        -2.467461        -0.071416        -0.645816
 H        -0.813793         2.339404         1.028391
 H        -0.646088         1.674501         2.738113
 H        -4.051167         0.938230         3.023491
 H        -4.795039         1.384934         1.506762
 H        -3.163842        -2.178998         2.269594
 H        -3.000618        -1.916902         0.534123
 H        -1.753743        -0.488162         2.910731
