19
Iteration:  2456charge 0 multiplicity 1
 O         0.562655        -0.074785         0.571415
 C        -0.743146         0.313625         0.914826
 C        -1.940191         0.790089        -0.030915
 C        -2.463410         0.878261         1.483579
 C        -1.029190         1.582046         2.009482
 C        -3.921884         0.821644         1.971120
 O        -4.278696        -0.512099         1.657156
 C        -3.148788        -1.324810         1.238009
 C        -1.841018        -0.600323         1.659325
 H         0.377839        -0.567667        -0.365734
 H        -1.707826         1.833437        -0.382864
 H        -2.378221         0.027468        -0.612173
 H        -0.977016         2.570618         1.571181
 H        -0.793835         1.582091         3.068862
 H        -4.181323         1.083020         3.019302
 H        -4.612369         1.344146         1.304330
 H        -3.232368        -2.356958         1.639285
 H        -3.169345        -1.437711         0.109014
 H        -1.477660        -0.924219         2.657869
