19
Iteration:  4199charge 0 multiplicity 1
 O         0.193121        -0.271939         0.413266
 C        -0.919408         0.346368         0.940088
 C        -1.998592         0.755031        -0.022692
 C        -2.414796         0.914765         1.607537
 C        -1.148051         1.754836         1.783070
 C        -3.868322         0.785839         1.834676
 O        -4.091140        -0.557014         1.398274
 C        -2.847858        -1.375642         1.578036
 C        -1.742786        -0.434029         1.934560
 H         1.009351         0.027508         0.784958
 H        -1.825275         1.562752        -0.686761
 H        -2.771622         0.019806        -0.419747
 H        -1.094010         2.546565         1.095974
 H        -0.689474         1.845866         2.755411
 H        -4.159713         0.718222         2.892126
 H        -4.450355         1.473842         1.229416
 H        -3.099240        -2.011428         2.441481
 H        -2.742917        -1.974587         0.724256
 H        -1.201614        -0.627459         2.927863
