19
Iteration:  2611charge 0 multiplicity 1
 O         0.389442        -0.115626         0.487615
 C        -0.815361         0.245987         0.899126
 C        -1.914782         0.793814         0.001410
 C        -2.452987         0.967651         1.453623
 C        -1.099199         1.544314         1.896745
 C        -3.798735         0.840066         1.982373
 O        -4.287423        -0.500174         1.493761
 C        -3.026104        -1.454252         1.398113
 C        -1.839545        -0.546724         1.793715
 H         1.124701         0.644460         0.609386
 H        -1.726468         1.849639        -0.469021
 H        -2.505962         0.169776        -0.775104
 H        -1.002002         2.587210         1.575713
 H        -0.674252         1.348474         2.992469
 H        -3.853489         0.891659         3.102498
 H        -4.540034         1.486311         1.505602
 H        -3.176543        -2.251569         2.098355
 H        -3.024476        -1.648377         0.285841
 H        -1.564759        -0.634112         2.866073
