19
Iteration:  1444
 O         0.356746        -0.141958         0.351721
 C        -0.848299         0.237514         1.006647
 C        -1.931057         0.946072         0.152385
 C        -2.488893         1.022564         1.629970
 C        -0.927481         1.477764         1.910389
 C        -3.935885         0.718128         1.955713
 O        -4.176668        -0.494527         1.288967
 C        -3.051229        -1.339795         1.325734
 C        -1.814588        -0.480523         1.865658
 H         0.626540        -1.074325         0.566840
 H        -1.463491         1.894459        -0.198048
 H        -2.435406         0.558226        -0.710948
 H        -0.742913         2.438737         1.555637
 H        -0.797762         1.439716         3.056881
 H        -4.175142         0.477933         3.052210
 H        -4.724693         1.479678         1.541293
 H        -3.301173        -2.158535         2.085890
 H        -3.009601        -1.759265         0.319210
 H        -1.554301        -0.799173         2.909390
