19
Iteration:  2026
 O         0.325156        -0.141737         0.313610
 C        -0.818567         0.294782         0.948620
 C        -1.970268         0.815961         0.112740
 C        -2.428428         0.936714         1.640023
 C        -1.043395         1.488292         1.994831
 C        -3.885251         0.772839         1.925763
 O        -4.174421        -0.493409         1.351138
 C        -2.988392        -1.298911         1.336754
 C        -1.823805        -0.434366         1.826393
 H         0.597640        -0.954050         0.995405
 H        -1.879072         1.881616        -0.267155
 H        -2.529270         0.078802        -0.410983
 H        -0.823907         2.601330         1.717505
 H        -0.663775         1.248731         2.966330
 H        -4.373621         0.929886         2.874656
 H        -4.452248         1.408127         1.198930
 H        -2.935937        -2.060739         2.150870
 H        -3.015091        -1.870291         0.470683
 H        -1.505488        -0.710830         2.831508
