19
Iteration:  2805charge 0 multiplicity 1
 O         0.397761        -0.218489         0.567305
 C        -0.801870         0.353016         0.908656
 C        -1.895056         0.941997         0.002234
 C        -2.476685         0.862654         1.397447
 C        -1.118604         1.518565         1.848332
 C        -3.917741         0.869907         1.755124
 O        -4.188712        -0.649457         1.845093
 C        -2.919361        -1.361108         1.417221
 C        -1.920162        -0.408306         1.732059
 H         0.289783        -0.472295        -0.294776
 H        -1.694162         1.889680        -0.428111
 H        -2.241957         0.293952        -0.864336
 H        -0.803358         2.495854         1.549551
 H        -0.887349         1.402508         2.973284
 H        -4.311990         1.345469         2.640462
 H        -4.438414         1.324525         0.893422
 H        -2.880473        -2.409845         1.733536
 H        -2.960960        -1.511766         0.324700
 H        -1.488727        -0.510230         2.760140
