19
Iteration:   331charge 0 multiplicity 1
 O         0.616387        -0.140718         0.592659
 C        -0.783890         0.219741         0.882691
 C        -1.941334         0.762268         0.014236
 C        -2.493972         0.936558         1.529201
 C        -1.155630         1.580375         1.762728
 C        -3.920422         0.847761         2.041649
 O        -4.290695        -0.501244         1.504143
 C        -3.056174        -1.348812         1.372529
 C        -1.837217        -0.508017         1.780592
 H         0.707528        -0.075899        -0.435718
 H        -1.834363         1.569042        -0.590820
 H        -2.515163         0.076126        -0.611265
 H        -0.869107         2.464870         1.182237
 H        -0.757946         1.620423         2.823102
 H        -3.953968         0.855170         3.183003
 H        -4.684461         1.589413         1.705500
 H        -3.223058        -2.204052         2.012942
 H        -3.016069        -1.574249         0.361345
 H        -1.464288        -0.641999         2.823563
