19
Iteration:  3897
 O         0.321872        -0.072338         0.364768
 C        -0.917372         0.262193         0.866447
 C        -1.971438         0.662643         0.010464
 C        -2.476641         0.932733         1.595507
 C        -1.185801         1.617369         1.791219
 C        -3.943527         0.871256         1.785297
 O        -4.055707        -0.504067         1.525681
 C        -2.901466        -1.384732         1.606418
 C        -1.729374        -0.474767         1.924850
 H         0.611036        -1.014011         0.749852
 H        -1.942539         1.571179        -0.517321
 H        -2.522973        -0.094197        -0.646831
 H        -1.036304         2.587546         1.287437
 H        -0.498355         1.534073         2.675147
 H        -4.362957         1.211317         2.757574
 H        -4.542964         1.363101         0.999725
 H        -3.009223        -2.023609         2.452798
 H        -2.891399        -2.088082         0.752372
 H        -1.221280        -0.371185         2.876240
