19
Iteration:    13charge 0 multiplicity 1
 O         0.475734        -0.014924         0.530267
 C        -0.812788         0.320069         0.919300
 C        -2.014996         0.683785        -0.027255
 C        -2.396128         0.874581         1.437094
 C        -1.080474         1.572909         1.814190
 C        -3.792658         0.871648         1.906765
 O        -4.198424        -0.503917         1.620317
 C        -3.077815        -1.405590         1.397087
 C        -1.924742        -0.532895         1.730742
 H         0.897730        -0.355023         1.260344
 H        -2.140691         1.555213        -0.666927
 H        -2.665341        -0.195282        -0.390050
 H        -0.894160         2.601025         1.406556
 H        -0.674453         1.433748         2.775216
 H        -3.821727         1.034717         3.037928
 H        -4.481689         1.542194         1.330869
 H        -3.120734        -2.276878         2.113645
 H        -3.152214        -1.820963         0.373341
 H        -1.850609        -0.538685         2.810458
