19
Iteration:  2079charge 0 multiplicity 1
 O         0.317220        -0.266508         0.386432
 C        -0.867734         0.324349         0.913809
 C        -1.954331         0.882675         0.051564
 C        -2.439647         0.996941         1.602729
 C        -1.107457         1.494029         2.039650
 C        -3.892024         0.852766         1.980950
 O        -4.181856        -0.497740         1.344180
 C        -2.949166        -1.375875         1.359469
 C        -1.808590        -0.478017         1.732479
 H         1.098834         0.034351         1.029288
 H        -1.892758         1.870077        -0.504415
 H        -2.399685         0.106330        -0.500995
 H        -0.713657         2.518400         1.763032
 H        -0.693850         1.215743         3.026326
 H        -3.991657         0.684260         3.042590
 H        -4.696248         1.552112         1.656032
 H        -2.952717        -2.270839         2.092048
 H        -2.893488        -1.814301         0.340586
 H        -1.476532        -0.742739         2.782687
