19
Iteration:  2964charge 0 multiplicity 1
 O         0.410896        -0.254613         0.496110
 C        -0.886617         0.265120         0.898052
 C        -2.034878         0.787764         0.030862
 C        -2.496005         0.957101         1.490317
 C        -0.987354         1.607118         1.802870
 C        -3.948608         0.730136         1.859721
 O        -4.201869        -0.572300         1.421317
 C        -2.820408        -1.305654         1.570612
 C        -1.869164        -0.308366         1.934070
 H         0.305337        -0.071965        -0.456336
 H        -1.956359         1.686098        -0.547741
 H        -2.577355         0.072407        -0.513675
 H        -0.813315         2.663654         1.383451
 H        -0.689959         1.501545         2.833453
 H        -4.066117         0.920547         2.933945
 H        -4.749348         1.264654         1.366647
 H        -2.839851        -2.075579         2.320671
 H        -2.660686        -1.835917         0.638039
 H        -1.446420        -0.410541         2.925220
