19
Iteration:  3137
 O         0.474165        -0.319339         0.555063
 C        -0.796793         0.297568         0.855033
 C        -1.921000         0.840691        -0.068113
 C        -2.464073         0.996311         1.410285
 C        -1.179080         1.710144         1.882235
 C        -3.963675         0.828765         1.655274
 O        -4.132791        -0.686450         2.006402
 C        -2.977580        -1.373695         1.396901
 C        -1.871396        -0.377664         1.735714
 H         0.726718         0.081059        -0.201685
 H        -1.837320         1.881342        -0.593294
 H        -2.552468         0.123215        -0.585572
 H        -0.681924         2.529060         1.340517
 H        -0.998552         1.657930         2.932852
 H        -4.307792         1.320774         2.582687
 H        -4.550584         1.113046         0.798674
 H        -2.897489        -2.346012         1.845627
 H        -3.289051        -1.445057         0.318604
 H        -1.650604        -0.612018         2.791953
