19
Iteration:  3454charge 0 multiplicity 1
 O         0.496535        -0.144022         0.461521
 C        -0.757522         0.316853         0.824487
 C        -2.004106         0.822412        -0.000889
 C        -2.456759         0.929496         1.510161
 C        -1.105068         1.571327         1.876283
 C        -3.962571         0.894115         1.683670
 O        -4.122307        -0.608161         1.931014
 C        -3.031610        -1.409937         1.386727
 C        -1.878024        -0.446763         1.651647
 H         0.729235        -0.769192         1.164164
 H        -1.967382         1.722938        -0.540400
 H        -2.526437        -0.025432        -0.571234
 H        -1.124264         2.566240         1.468115
 H        -0.746932         1.483682         2.941915
 H        -4.346136         1.464128         2.527217
 H        -4.343453         1.314321         0.761083
 H        -3.020663        -2.177805         2.185754
 H        -3.305420        -1.834498         0.426699
 H        -1.646204        -0.551763         2.776878
