19
Iteration:  2946
 O         0.349982        -0.184960         0.524925
 C        -0.799339         0.377130         0.920737
 C        -2.045576         0.740643         0.048808
 C        -2.461819         1.028413         1.514179
 C        -1.063240         1.620554         1.796371
 C        -3.913570         0.839567         1.861341
 O        -4.130317        -0.595216         1.489784
 C        -2.939532        -1.413281         1.487824
 C        -1.781561        -0.433955         1.863686
 H         0.234780        -0.724344        -0.300706
 H        -1.924920         1.606937        -0.642810
 H        -2.599433        -0.155910        -0.569013
 H        -0.788321         2.503065         1.315578
 H        -0.729374         1.644911         2.873743
 H        -4.256006         0.958851         2.917787
 H        -4.598847         1.492449         1.224523
 H        -3.078652        -2.327392         2.181490
 H        -2.864994        -1.938363         0.521114
 H        -1.514697        -0.395208         2.932592
