19
Iteration:  2060
 O         0.266469        -0.248066         0.339061
 C        -0.851170         0.286723         0.976754
 C        -1.949764         0.981176         0.166425
 C        -2.444815         0.936964         1.612440
 C        -0.934366         1.523080         1.898032
 C        -3.907051         0.705217         1.936175
 O        -4.167609        -0.529173         1.318648
 C        -3.000200        -1.354358         1.329184
 C        -1.873038        -0.431906         1.920644
 H         1.087699        -0.190525         0.918414
 H        -1.653397         1.995243        -0.197285
 H        -2.585708         0.553387        -0.627196
 H        -0.786606         2.560473         1.398895
 H        -0.597322         1.524091         2.890917
 H        -4.206316         0.769798         2.981082
 H        -4.509925         1.362913         1.286352
 H        -3.110971        -2.180118         2.035545
 H        -2.733904        -1.707288         0.393476
 H        -1.633507        -0.732903         2.909501
