19
Iteration:  4677charge 0 multiplicity 1
 O         0.406513        -0.274964         0.494042
 C        -0.791054         0.342446         0.831512
 C        -1.956151         0.898521        -0.073734
 C        -2.480715         0.964649         1.405144
 C        -1.104648         1.663894         1.794608
 C        -3.954088         0.788226         1.949212
 O        -4.191878        -0.615215         1.595854
 C        -2.965299        -1.433402         1.512768
 C        -1.820255        -0.380742         1.841194
 H         0.579616        -0.919409         1.097575
 H        -1.645288         1.866726        -0.575693
 H        -2.434204         0.225164        -0.771122
 H        -0.965821         2.655735         1.299051
 H        -0.666329         1.624868         2.800795
 H        -4.004010         1.043184         3.044290
 H        -4.851319         1.352559         1.505425
 H        -2.969303        -2.191984         2.290827
 H        -2.940480        -1.803276         0.472156
 H        -1.338280        -0.449606         2.864948
