19
Iteration:  4562charge 0 multiplicity 1
 O         0.541708         0.059390         0.564071
 C        -0.798424         0.243107         0.871886
 C        -1.933736         0.772978        -0.183066
 C        -2.484763         0.929671         1.266417
 C        -1.157009         1.514591         1.719769
 C        -3.809523         0.845751         1.923916
 O        -4.222674        -0.520622         1.845148
 C        -3.134475        -1.430729         1.479725
 C        -1.894493        -0.633296         1.756232
 H         1.068369         0.300325         1.412675
 H        -1.406476         1.624503        -0.630575
 H        -2.368666         0.083688        -0.923906
 H        -0.837696         2.488319         1.369570
 H        -1.042575         1.391203         2.797491
 H        -3.691936         1.298499         2.903709
 H        -4.576218         1.398393         1.490887
 H        -3.239369        -2.221284         2.271740
 H        -3.461455        -1.821006         0.501741
 H        -1.665778        -0.779766         2.840344
