19
Iteration:  4513
 O         0.352887        -0.248608         0.441043
 C        -0.821043         0.274746         0.922571
 C        -1.976049         0.756580         0.018652
 C        -2.455890         0.980202         1.490231
 C        -1.208603         1.706108         1.779719
 C        -3.918845         0.847211         1.784169
 O        -4.121043        -0.610559         1.726975
 C        -2.910073        -1.388929         1.442759
 C        -1.788826        -0.404972         1.818619
 H         0.837541        -0.504605         1.215219
 H        -2.000001         1.673692        -0.571171
 H        -2.348026        -0.080788        -0.625499
 H        -0.896657         2.527622         1.084100
 H        -0.789007         1.722176         2.822464
 H        -4.188231         1.181321         2.802299
 H        -4.563486         1.530897         1.116897
 H        -3.138129        -2.382400         1.817703
 H        -2.927476        -1.460238         0.340692
 H        -1.410270        -0.430336         2.832969
