19
Iteration:  2472
 O         0.525998        -0.170118         0.582443
 C        -0.758267         0.380032         0.892424
 C        -1.924969         0.904264         0.072101
 C        -2.452301         0.908868         1.549236
 C        -1.096437         1.433898         1.892677
 C        -3.941825         0.855201         1.847100
 O        -4.231011        -0.591554         1.724874
 C        -3.075186        -1.351345         1.205032
 C        -1.899313        -0.467723         1.694846
 H         0.718393        -0.062876        -0.339582
 H        -1.959139         1.791702        -0.534897
 H        -2.367398         0.100866        -0.618865
 H        -0.742853         2.466248         1.674946
 H        -0.730243         1.117444         2.890756
 H        -4.025194         1.104159         2.908009
 H        -4.561302         1.514346         1.198899
 H        -3.136145        -2.244193         1.820339
 H        -3.146315        -1.502967         0.131638
 H        -1.654001        -0.770987         2.724272
