19
Iteration:  4182charge 0 multiplicity 1
 O         0.294217        -0.261400         0.302705
 C        -0.820302         0.334369         0.907704
 C        -1.998914         0.759345         0.110703
 C        -2.468850         1.034249         1.533679
 C        -1.096031         1.713578         1.782999
 C        -3.952344         0.807971         1.851828
 O        -4.080834        -0.642068         1.413703
 C        -2.929175        -1.457005         1.634533
 C        -1.816266        -0.345379         1.922184
 H         0.950832        -0.358639         0.899840
 H        -1.863134         1.740203        -0.431384
 H        -2.329754        -0.027246        -0.528122
 H        -0.968248         2.717241         1.256618
 H        -0.721685         1.751177         2.839427
 H        -4.211899         1.077328         2.921550
 H        -4.604845         1.322310         1.116833
 H        -2.956579        -2.132007         2.507203
 H        -2.773066        -2.048562         0.653408
 H        -1.621909        -0.469053         2.966807
