19
Iteration:  4690
 O         0.387174        -0.094408         0.480625
 C        -0.882520         0.317778         0.914383
 C        -1.893847         0.785893        -0.058382
 C        -2.490192         1.002249         1.481930
 C        -1.019851         1.556053         1.674679
 C        -3.860087         0.738023         1.944645
 O        -4.213400        -0.593564         1.555133
 C        -2.976222        -1.344536         1.551328
 C        -1.911422        -0.414952         1.815653
 H         0.578487        -0.911455         1.177480
 H        -1.793595         1.762851        -0.501252
 H        -2.290788         0.071311        -0.712836
 H        -0.678252         2.473310         1.133534
 H        -0.809976         1.586906         2.765480
 H        -3.753034         0.664830         3.075161
 H        -4.689736         1.456675         1.564468
 H        -3.118990        -2.254639         2.154012
 H        -2.845157        -1.792294         0.587062
 H        -1.639407        -0.443289         2.887421
