19
Iteration:  3781
 O         0.497205        -0.104503         0.514770
 C        -0.758766         0.289817         0.897719
 C        -1.899575         0.781604        -0.053368
 C        -2.472182         0.960975         1.378326
 C        -1.110105         1.527446         1.798135
 C        -3.927073         0.819463         1.803778
 O        -4.232055        -0.652202         1.883367
 C        -2.999019        -1.340764         1.438872
 C        -1.910669        -0.429085         1.826918
 H         0.514937        -0.364390        -0.533175
 H        -1.693127         1.745262        -0.542329
 H        -2.513713         0.299525        -0.867742
 H        -0.782760         2.454834         1.270123
 H        -0.827623         1.687721         2.814203
 H        -4.166651         1.260284         2.817208
 H        -4.695470         1.235136         1.095074
 H        -2.964662        -2.402621         1.832906
 H        -3.096111        -1.457459         0.371593
 H        -1.750355        -0.383018         2.907157
