19
Iteration:  1422charge 0 multiplicity 1
 O         0.388947        -0.202409         0.372131
 C        -0.788528         0.366313         0.942793
 C        -1.951244         0.888097         0.040476
 C        -2.439607         0.890609         1.552137
 C        -1.080045         1.513838         2.109595
 C        -3.816226         0.840720         2.021386
 O        -4.238480        -0.518601         1.354400
 C        -3.031458        -1.355419         1.300776
 C        -1.845208        -0.475055         1.706358
 H         0.750759        -0.742648         1.199445
 H        -2.045153         1.825112        -0.537415
 H        -2.555483         0.199144        -0.518462
 H        -0.893865         2.518304         1.881823
 H        -0.650186         1.191149         3.126758
 H        -4.039980         0.713871         3.138157
 H        -4.301362         1.794766         1.557343
 H        -3.195846        -2.258464         1.965092
 H        -3.008600        -1.715171         0.272324
 H        -1.705820        -0.728179         2.791849
