19
Iteration:   973
 O         0.418083        -0.244580         0.546609
 C        -0.794050         0.375315         0.901013
 C        -1.990879         0.965764         0.023818
 C        -2.401737         0.887899         1.568016
 C        -0.995019         1.464208         1.958298
 C        -3.861525         0.889281         1.831936
 O        -4.255399        -0.582249         1.676454
 C        -3.057983        -1.355332         1.188666
 C        -1.903908        -0.528505         1.696304
 H         1.165926         0.421163         0.911791
 H        -1.855699         1.937371        -0.556589
 H        -2.486502         0.247731        -0.618599
 H        -0.901591         2.511993         1.732432
 H        -0.601239         1.097719         2.936687
 H        -4.135213         1.125879         2.940652
 H        -4.530335         1.516376         1.186394
 H        -3.115024        -2.324214         1.751104
 H        -3.207433        -1.539730         0.047902
 H        -1.543351        -0.868531         2.686740
