19
Iteration:  4032
 O         0.406332        -0.252281         0.466131
 C        -0.859241         0.343854         0.898876
 C        -1.997465         0.854831        -0.005144
 C        -2.462007         1.058444         1.385051
 C        -1.051860         1.579818         1.792033
 C        -3.958582         0.746864         1.572120
 O        -4.138854        -0.643669         1.999052
 C        -2.967287        -1.413270         1.533996
 C        -1.879810        -0.370203         1.778201
 H         1.235688         0.353681         0.445305
 H        -1.736874         1.745290        -0.673056
 H        -2.495200         0.046496        -0.492148
 H        -0.872687         2.576265         1.301706
 H        -0.614796         1.509453         2.799676
 H        -4.474198         1.369563         2.295235
 H        -4.504526         1.010381         0.615971
 H        -2.780163        -2.402921         2.019482
 H        -3.056803        -1.746777         0.496136
 H        -1.534864        -0.450449         2.904080
