19
Iteration:  4155charge 0 multiplicity 1
 O         0.446420        -0.068162         0.382915
 C        -0.876688         0.302858         0.868658
 C        -2.003735         0.716277        -0.027479
 C        -2.481009         0.968925         1.455555
 C        -1.010610         1.618862         1.801841
 C        -3.967008         0.778089         1.887307
 O        -4.237696        -0.637066         1.510168
 C        -2.953763        -1.344089         1.662513
 C        -1.807920        -0.371021         1.892038
 H         0.680594        -0.858617         0.692173
 H        -1.788503         1.626770        -0.554141
 H        -2.239646        -0.110020        -0.769099
 H        -0.933684         2.571352         1.351306
 H        -0.578492         1.393003         2.760566
 H        -4.035591         1.042407         2.919919
 H        -4.585763         1.312779         1.189064
 H        -2.960535        -2.058218         2.496943
 H        -2.783470        -1.832975         0.747561
 H        -1.576615        -0.548616         2.984801
