19
Iteration:  4706charge 0 multiplicity 1
 O         0.443459         0.021264         0.452027
 C        -0.815892         0.228033         0.927959
 C        -2.028082         0.633239        -0.007932
 C        -2.445289         0.947853         1.407118
 C        -1.049030         1.588428         1.775252
 C        -3.861904         0.826951         2.012731
 O        -4.239225        -0.512442         1.483991
 C        -3.042163        -1.392424         1.464104
 C        -1.843528        -0.406841         1.884007
 H         1.066193        -0.684561         0.916834
 H        -1.682499         1.388607        -0.757918
 H        -2.645308        -0.185113        -0.513880
 H        -0.819116         2.485722         1.218570
 H        -0.582636         1.543818         2.756973
 H        -3.872581         0.831766         3.118344
 H        -4.644546         1.379814         1.588767
 H        -3.085614        -2.148165         2.283034
 H        -3.005320        -1.972655         0.489808
 H        -1.635894        -0.583632         2.956851
