19
Iteration:  2789charge 0 multiplicity 1
 O         0.499921        -0.190017         0.506903
 C        -0.785663         0.304172         0.897790
 C        -1.844990         0.904022        -0.050777
 C        -2.473845         1.005072         1.451702
 C        -1.134614         1.612585         1.901564
 C        -3.963869         0.745916         1.773501
 O        -4.221620        -0.633237         1.812430
 C        -3.081450        -1.337417         1.355335
 C        -1.792656        -0.459415         1.778577
 H         0.321469        -1.011159        -0.092644
 H        -1.646232         1.924688        -0.569551
 H        -2.403397         0.256160        -0.696678
 H        -0.927554         2.708108         1.605199
 H        -0.772244         1.564211         2.898237
 H        -4.145847         1.130528         2.814507
 H        -4.733351         1.179021         1.106455
 H        -3.132297        -2.235367         2.013676
 H        -3.191874        -1.763810         0.312336
 H        -1.556560        -0.592623         2.818070
