19
Iteration:  1285charge 0 multiplicity 1
 O         0.495298        -0.148307         0.457701
 C        -0.748040         0.264507         0.944168
 C        -1.845375         1.011807         0.053907
 C        -2.464780         0.953635         1.499882
 C        -0.984669         1.467559         2.034301
 C        -4.019079         0.793000         1.835606
 O        -4.246688        -0.646584         1.781134
 C        -3.088304        -1.264658         1.124248
 C        -1.924703        -0.526241         1.687231
 H         0.860954        -0.791124         0.965450
 H        -1.575372         1.895018        -0.558343
 H        -2.478554         0.417429        -0.586785
 H        -0.684401         2.594925         1.692309
 H        -0.691278         1.393394         3.098614
 H        -4.267619         1.219984         2.836162
 H        -4.716234         1.201123         1.092168
 H        -3.239009        -2.291944         1.385693
 H        -3.279740        -1.231900         0.020215
 H        -1.670819        -0.799776         2.688123
