19
Iteration:  2768charge 0 multiplicity 1
 O         0.510582        -0.068065         0.480255
 C        -0.773909         0.352967         0.932070
 C        -1.920084         0.750453        -0.006360
 C        -2.482667         0.951445         1.476923
 C        -1.055819         1.531213         1.854960
 C        -3.923682         0.884724         1.882832
 O        -4.251227        -0.605314         1.723189
 C        -3.016486        -1.411416         1.351187
 C        -1.931990        -0.470271         1.715771
 H         0.649582        -0.916673         0.729093
 H        -1.805069         1.792773        -0.519232
 H        -2.312163         0.003213        -0.666404
 H        -0.756048         2.518825         1.357794
 H        -0.807165         1.597691         2.884682
 H        -4.077117         1.160465         2.951034
 H        -4.624866         1.432358         1.210213
 H        -2.969779        -2.395668         1.890456
 H        -3.098570        -1.588561         0.256321
 H        -1.757680        -0.609458         2.767289
