19
Iteration:  2703
 O         0.436926        -0.205256         0.524672
 C        -0.818713         0.331004         0.903622
 C        -1.970559         0.804008        -0.052639
 C        -2.419257         1.027356         1.506400
 C        -1.027705         1.562627         1.912210
 C        -3.924626         0.738922         1.954723
 O        -4.274669        -0.565888         1.447864
 C        -3.014573        -1.376569         1.470875
 C        -1.816093        -0.457848         1.813097
 H         0.702672         0.376248        -0.234190
 H        -1.983434         1.883005        -0.437252
 H        -2.385188         0.105848        -0.747528
 H        -0.794439         2.521916         1.402215
 H        -0.756273         1.460946         2.897465
 H        -3.971570         0.812214         3.040170
 H        -4.688357         1.370542         1.465375
 H        -3.152311        -2.142433         2.263178
 H        -2.880411        -1.700103         0.468160
 H        -1.456155        -0.622573         2.823334
