19
Iteration:  2973charge 0 multiplicity 1
 O         0.385657        -0.269493         0.466226
 C        -0.836715         0.277643         0.856334
 C        -1.983429         0.806031         0.028813
 C        -2.484628         1.078519         1.516270
 C        -1.052166         1.601781         1.801684
 C        -3.997162         0.763276         1.886835
 O        -4.215090        -0.582654         1.402606
 C        -2.842706        -1.445328         1.622965
 C        -1.826368        -0.352099         1.944490
 H         0.745266         0.068758        -0.392021
 H        -1.753695         1.694805        -0.611586
 H        -2.565067         0.125154        -0.442731
 H        -0.897440         2.596243         1.176141
 H        -0.662256         1.727238         2.804809
 H        -4.101105         0.792224         2.987621
 H        -4.692321         1.442008         1.436262
 H        -3.054816        -2.252179         2.288868
 H        -2.649154        -1.826475         0.575980
 H        -1.489662        -0.211826         2.986977
