19
Iteration:  3165
 O         0.383279        -0.181817         0.493196
 C        -0.791556         0.344688         0.911947
 C        -1.862980         0.673162        -0.054552
 C        -2.486220         0.860514         1.380551
 C        -1.244553         1.561899         1.829865
 C        -3.915127         0.938499         1.745330
 O        -4.170062        -0.564163         1.885747
 C        -2.954756        -1.318712         1.468848
 C        -1.776386        -0.486806         1.725364
 H         0.798494         0.535772         0.064005
 H        -1.759185         1.640047        -0.458527
 H        -2.223033        -0.102206        -0.706733
 H        -1.004508         2.613116         1.595936
 H        -1.087265         1.409579         2.933757
 H        -4.139710         1.347045         2.736566
 H        -4.525147         1.429093         0.936204
 H        -2.957880        -2.238695         2.103643
 H        -3.241494        -1.603189         0.480247
 H        -1.557340        -0.694062         2.773956
