19
Iteration:  4267
 O         0.470991        -0.126703         0.578853
 C        -0.773488         0.370890         0.856984
 C        -1.958365         0.766321        -0.153240
 C        -2.464054         0.827238         1.419471
 C        -1.222923         1.538110         1.816556
 C        -3.855529         0.873056         1.880489
 O        -4.211937        -0.523257         1.725170
 C        -3.011388        -1.412018         1.511223
 C        -1.816540        -0.557027         1.775473
 H         0.980910         0.629472        -0.013802
 H        -1.881489         1.759836        -0.656303
 H        -2.425426         0.088364        -0.834231
 H        -1.180299         2.461050         1.274528
 H        -0.996185         1.620594         2.847414
 H        -3.717064         1.211216         2.928778
 H        -4.546911         1.484266         1.270655
 H        -2.988574        -2.163216         2.258231
 H        -3.247790        -1.812004         0.533791
 H        -1.579273        -0.481098         2.852348
