19
Iteration:   390
 O         0.465169        -0.185845         0.378522
 C        -0.771734         0.327680         0.918329
 C        -1.847626         0.935210        -0.021762
 C        -2.464366         0.830110         1.499665
 C        -1.121831         1.544960         1.980328
 C        -3.981827         0.827029         1.732007
 O        -4.234353        -0.580110         1.751895
 C        -3.029735        -1.307233         1.390833
 C        -1.837281        -0.479997         1.784838
 H         0.563223        -1.086860         0.766500
 H        -1.696688         2.033295        -0.231338
 H        -2.413365         0.323657        -0.672011
 H        -0.969900         2.538911         1.517450
 H        -0.742067         1.394985         2.992928
 H        -4.158797         1.303927         2.783926
 H        -4.523508         1.385463         0.906460
 H        -3.170995        -2.298438         1.893115
 H        -2.964935        -1.599128         0.298471
 H        -1.627464        -0.587634         2.849118
