19
Iteration:   864
 O         0.372581        -0.115667         0.380974
 C        -0.818816         0.314463         0.941975
 C        -1.979233         0.876188         0.152126
 C        -2.388069         0.984403         1.686259
 C        -0.969864         1.467610         1.974962
 C        -3.945059         0.809224         1.882462
 O        -4.256714        -0.523297         1.322415
 C        -3.007008        -1.391498         1.398054
 C        -1.822058        -0.461725         1.721046
 H         0.360349        -1.031222         0.793431
 H        -1.675447         1.835284        -0.360698
 H        -2.517837         0.103249        -0.315942
 H        -0.749667         2.475802         1.665812
 H        -0.457705         1.227190         2.930231
 H        -4.284685         0.853859         2.921321
 H        -4.474301         1.524652         1.261546
 H        -3.047614        -2.054866         2.233077
 H        -3.066682        -1.868737         0.397826
 H        -1.447377        -0.730319         2.724291
