19
Iteration:    12charge 0 multiplicity 1
 O         0.465270        -0.031250         0.521312
 C        -0.805658         0.314290         0.924123
 C        -2.004550         0.693729        -0.024520
 C        -2.402322         0.876587         1.443113
 C        -1.079987         1.583828         1.813864
 C        -3.803648         0.866683         1.902767
 O        -4.194752        -0.511117         1.613513
 C        -3.066602        -1.401694         1.406856
 C        -1.924787        -0.528778         1.734060
 H         0.854710        -0.329627         1.202407
 H        -2.132198         1.558450        -0.646894
 H        -2.638221        -0.125234        -0.383066
 H        -0.900737         2.588472         1.398950
 H        -0.669652         1.399794         2.796745
 H        -3.870115         1.031434         2.975167
 H        -4.488242         1.523746         1.365656
 H        -3.108990        -2.236348         2.113244
 H        -3.137851        -1.780724         0.393107
 H        -1.848339        -0.516423         2.819967
