19
Iteration:  1598
 O         0.424483        -0.304271         0.512627
 C        -0.752936         0.349197         0.899426
 C        -1.792848         0.998728        -0.063046
 C        -2.474708         1.004035         1.480512
 C        -0.985184         1.444958         2.007724
 C        -4.044879         0.803641         1.820482
 O        -4.181841        -0.722828         1.883563
 C        -3.091235        -1.293171         1.189018
 C        -1.976927        -0.358143         1.668889
 H         1.049182         0.346785         0.384219
 H        -1.587798         2.002373        -0.435439
 H        -2.161346         0.247832        -0.779568
 H        -0.753389         2.499641         1.764274
 H        -0.578864         1.218039         3.134891
 H        -4.519234         0.989659         2.752271
 H        -4.683123         1.224965         0.995280
 H        -2.990251        -2.311325         1.606421
 H        -3.220527        -1.234762         0.104706
 H        -1.680444        -0.664851         2.710041
