19
Iteration:  3563charge 0 multiplicity 1
 O         0.393550        -0.252250         0.461578
 C        -0.846812         0.255234         0.931008
 C        -2.048887         0.849238         0.091656
 C        -2.514428         1.024832         1.545713
 C        -0.983767         1.600871         1.830790
 C        -3.972640         0.760653         1.848985
 O        -4.130313        -0.607599         1.451356
 C        -2.926155        -1.353404         1.529438
 C        -1.837619        -0.349065         1.825833
 H         0.455131         0.105339        -0.500726
 H        -1.832404         1.718872        -0.445817
 H        -2.765191         0.074852        -0.371994
 H        -0.608722         2.433055         1.212304
 H        -0.640304         1.477221         2.903272
 H        -4.136571         0.955905         2.916177
 H        -4.633305         1.402454         1.236211
 H        -2.968971        -2.087155         2.413697
 H        -2.766822        -1.868297         0.562799
 H        -1.417415        -0.631572         2.827460
