19
Iteration:  2406
 O         0.513074        -0.085998         0.477037
 C        -0.814714         0.322599         0.869695
 C        -1.986617         0.907095         0.043077
 C        -2.438887         1.001366         1.579606
 C        -1.058040         1.452459         1.949081
 C        -3.892878         0.800598         1.963845
 O        -4.313960        -0.539067         1.470078
 C        -3.061379        -1.376433         1.348181
 C        -1.813812        -0.498154         1.694905
 H         0.751984        -0.978653         0.732114
 H        -1.700793         1.758864        -0.633148
 H        -2.642542         0.156827        -0.545541
 H        -0.572580         2.481431         1.801214
 H        -0.757954         1.163941         3.051010
 H        -4.087255         0.588239         3.019041
 H        -4.503407         1.584451         1.471615
 H        -2.995664        -2.135842         2.147440
 H        -3.160487        -1.786631         0.336054
 H        -1.390449        -0.847806         2.678401
