19
Iteration:   817charge 0 multiplicity 1
 O         0.353839        -0.186598         0.486453
 C        -0.816146         0.274182         0.918123
 C        -1.925750         0.906687         0.040433
 C        -2.415078         0.934750         1.569004
 C        -1.072602         1.577379         1.990852
 C        -3.852375         0.818478         2.018489
 O        -4.228364        -0.504946         1.404869
 C        -2.998546        -1.375791         1.264892
 C        -1.851714        -0.494630         1.725016
 H         0.419159        -1.050712         0.601174
 H        -1.826072         1.892164        -0.381750
 H        -2.409173         0.071539        -0.533082
 H        -0.793995         2.618770         1.610578
 H        -0.769240         1.575776         2.974927
 H        -3.943266         0.707541         3.144413
 H        -4.644641         1.542510         1.582253
 H        -3.229040        -2.095983         2.078116
 H        -2.940757        -1.798494         0.216960
 H        -1.351356        -0.798726         2.715764
