19
Iteration:  3416charge 0 multiplicity 1
 O         0.403446        -0.187451         0.426225
 C        -0.841978         0.304355         0.975862
 C        -1.776261         0.842562        -0.031479
 C        -2.507332         0.973133         1.393748
 C        -1.088514         1.622880         1.792852
 C        -3.980482         0.845448         1.744599
 O        -4.154668        -0.692424         1.927728
 C        -2.965532        -1.370819         1.415353
 C        -1.938315        -0.383138         1.825614
 H         0.266360        -0.895925        -0.092613
 H        -1.334897         1.834970        -0.379151
 H        -2.253032         0.362898        -0.825755
 H        -0.826349         2.597970         1.290172
 H        -0.705090         1.592488         2.800121
 H        -4.408384         1.168681         2.714068
 H        -4.681591         1.089712         0.903849
 H        -2.929037        -2.357499         1.942782
 H        -2.835554        -1.564870         0.326296
 H        -1.757566        -0.478764         2.874784
