19
Iteration:  1824
 O         0.449795        -0.094539         0.598633
 C        -0.834200         0.238422         0.906800
 C        -1.867242         0.889709         0.063632
 C        -2.510830         0.942777         1.493344
 C        -1.024124         1.435858         1.854861
 C        -3.855936         0.815293         1.969921
 O        -4.262885        -0.577850         1.602830
 C        -3.085771        -1.338936         1.243309
 C        -1.901045        -0.454726         1.721078
 H         0.556088         0.276552        -0.193314
 H        -1.465927         1.755840        -0.463965
 H        -2.398288         0.203243        -0.664606
 H        -0.704098         2.434294         1.428304
 H        -0.525484         1.125275         2.855270
 H        -3.794270         0.817772         3.068956
 H        -4.548110         1.615202         1.626932
 H        -3.102798        -2.269039         1.745110
 H        -3.196598        -1.516393         0.197669
 H        -1.533158        -0.739950         2.749407
