19
Iteration:  3307charge 0 multiplicity 1
 O         0.401201        -0.093838         0.399456
 C        -0.844870         0.286506         0.906952
 C        -2.067268         0.742747        -0.002382
 C        -2.448908         0.990229         1.477556
 C        -1.114898         1.614204         1.794776
 C        -3.885297         0.881884         1.796588
 O        -4.135187        -0.538289         1.516779
 C        -2.984514        -1.468451         1.623099
 C        -1.727204        -0.494879         1.915814
 H         0.284356        -0.989091         0.249732
 H        -1.956774         1.713537        -0.482614
 H        -2.547853         0.041222        -0.593186
 H        -0.936429         2.681939         1.472958
 H        -0.939553         1.644806         2.883920
 H        -4.116966         1.037665         2.825847
 H        -4.572591         1.496896         1.172489
 H        -3.053225        -2.106556         2.522617
 H        -2.874310        -2.192593         0.821954
 H        -1.328717        -0.548262         2.911842
