19
Iteration:  2321
 O         0.349189        -0.200852         0.373517
 C        -0.807146         0.237411         0.912273
 C        -1.979449         0.938716         0.110022
 C        -2.410439         0.898783         1.636915
 C        -1.074638         1.526395         1.984766
 C        -3.912194         0.832405         1.932194
 O        -4.201551        -0.487175         1.329497
 C        -3.012572        -1.375828         1.367905
 C        -1.809188        -0.521095         1.801731
 H         1.074188         0.210388         0.992219
 H        -1.802733         1.908855        -0.215911
 H        -2.654036         0.330248        -0.526360
 H        -0.860662         2.502621         1.443872
 H        -0.507717         1.433872         2.884524
 H        -4.100656         0.716044         3.004465
 H        -4.593539         1.629221         1.535094
 H        -3.126432        -2.257793         2.070507
 H        -2.965540        -1.852874         0.365826
 H        -1.428248        -0.769531         2.834601
