19
Iteration:  1611charge 0 multiplicity 1
 O         0.411314        -0.286427         0.522795
 C        -0.795188         0.359614         0.929089
 C        -1.802786         1.018921        -0.018129
 C        -2.503390         1.001397         1.447764
 C        -1.017962         1.448893         2.019515
 C        -4.006652         0.693210         1.763824
 O        -4.232812        -0.622229         1.874623
 C        -3.053989        -1.298398         1.238794
 C        -1.866330        -0.440095         1.679463
 H         0.984659         0.418036         0.017972
 H        -1.623384         1.932248        -0.593221
 H        -2.431441         0.362025        -0.708956
 H        -0.571840         2.485588         1.890402
 H        -0.816395         0.951189         3.074265
 H        -4.024615         1.373233         2.633987
 H        -4.689885         1.091503         0.980962
 H        -3.098725        -2.326414         1.394395
 H        -3.217871        -1.239368         0.114271
 H        -1.481123        -0.635247         2.730566
