19
Iteration:  4060charge 0 multiplicity 1
 O         0.411650        -0.300164         0.527990
 C        -0.833273         0.358346         0.842920
 C        -1.945622         0.815919        -0.129372
 C        -2.462831         0.900106         1.350749
 C        -1.231131         1.637028         1.815150
 C        -3.984726         0.809020         1.738383
 O        -4.133538        -0.582165         1.967735
 C        -2.951504        -1.352143         1.513283
 C        -1.769449        -0.427639         1.767820
 H         1.339632         0.276309         0.507863
 H        -1.839466         1.762078        -0.590803
 H        -2.195800         0.007620        -0.881873
 H        -1.209310         2.570309         1.260164
 H        -0.838501         1.548388         2.830241
 H        -4.268992         1.299799         2.719937
 H        -4.521391         1.169054         0.870447
 H        -2.874047        -2.289445         2.028354
 H        -3.047444        -1.466853         0.373521
 H        -1.520706        -0.371098         2.779435
