19
Iteration:  1028charge 0 multiplicity 1
 O         0.422935        -0.229216         0.565728
 C        -0.761331         0.291588         0.935528
 C        -1.916254         0.991985         0.077499
 C        -2.367460         0.917091         1.478078
 C        -1.147509         1.514410         2.039629
 C        -3.832386         0.809764         1.817134
 O        -4.226017        -0.535296         1.723575
 C        -3.103174        -1.334300         1.209467
 C        -1.834341        -0.555667         1.631123
 H         0.483742        -0.080175        -0.512580
 H        -1.719924         2.036147        -0.302847
 H        -2.299623         0.291240        -0.666497
 H        -0.911905         2.519872         1.762049
 H        -1.134511         1.291935         3.171762
 H        -4.172850         1.133712         2.881634
 H        -4.491341         1.251620         1.027475
 H        -3.241599        -2.307688         1.667895
 H        -3.254727        -1.349812         0.057355
 H        -1.519299        -0.890537         2.637642
