19
Iteration:  2689
 O         0.390238        -0.197801         0.511302
 C        -0.860968         0.275583         0.909720
 C        -1.956590         0.926574         0.033611
 C        -2.527675         0.963354         1.535276
 C        -1.073525         1.551777         1.856161
 C        -3.912364         0.851905         1.924600
 O        -4.165649        -0.559857         1.417001
 C        -2.892706        -1.437628         1.455360
 C        -1.862415        -0.448028         1.862170
 H         0.437907        -0.239684        -0.472555
 H        -1.602292         1.795099        -0.631882
 H        -2.596057         0.150215        -0.527550
 H        -0.744825         2.531967         1.422599
 H        -0.723478         1.354780         2.966395
 H        -4.049506         0.854511         3.040660
 H        -4.635286         1.561402         1.500452
 H        -3.049634        -2.240937         2.190624
 H        -2.827341        -2.040087         0.472592
 H        -1.435695        -0.519624         2.864171
