19
Iteration:   150charge 0 multiplicity 1
 O         0.456420        -0.174009         0.474704
 C        -0.804867         0.318610         0.906744
 C        -1.924646         0.817268        -0.066682
 C        -2.478872         0.932487         1.345541
 C        -1.179673         1.539197         1.874377
 C        -3.913557         0.868592         1.837605
 O        -4.198624        -0.601387         1.708913
 C        -3.000800        -1.304302         1.442688
 C        -1.823411        -0.452562         1.833575
 H         0.621502        -1.058045         0.954697
 H        -1.594466         1.716699        -0.714222
 H        -2.344858         0.118762        -0.767152
 H        -0.963932         2.545013         1.589767
 H        -0.857581         1.357509         2.966723
 H        -3.939249         1.156561         3.011572
 H        -4.730093         1.399495         1.297528
 H        -3.035690        -2.218511         2.016763
 H        -2.922773        -1.507665         0.318201
 H        -1.514510        -0.446663         2.901696
