19
Iteration:  2008charge 0 multiplicity 1
 O         0.377447        -0.088089         0.402025
 C        -0.832973         0.331027         0.909714
 C        -1.966863         0.902309         0.034084
 C        -2.450250         0.867221         1.533700
 C        -1.109899         1.494303         1.996109
 C        -3.838820         0.885025         1.925097
 O        -4.184750        -0.457694         1.421585
 C        -3.050735        -1.442935         1.430980
 C        -1.811674        -0.576419         1.775527
 H         0.780373        -0.994684         0.816142
 H        -1.680586         1.828251        -0.441015
 H        -2.406636         0.144046        -0.708340
 H        -0.912749         2.526268         1.638335
 H        -0.863443         1.369611         3.033244
 H        -3.811100         0.853586         3.052813
 H        -4.542951         1.640398         1.571946
 H        -3.356037        -2.278373         2.038374
 H        -2.789688        -1.808961         0.370339
 H        -1.435410        -0.778327         2.778110
