19
Iteration:  2081
 O         0.331954        -0.266081         0.387904
 C        -0.863556         0.334405         0.905529
 C        -1.955903         0.882881         0.040796
 C        -2.446566         0.996834         1.580216
 C        -1.103384         1.492467         2.060192
 C        -3.883545         0.844836         1.994023
 O        -4.185844        -0.485649         1.350266
 C        -2.963185        -1.388193         1.350294
 C        -1.806541        -0.483208         1.744600
 H         1.099260         0.035038         1.036177
 H        -1.993730         1.844933        -0.511209
 H        -2.408836         0.072095        -0.521882
 H        -0.685771         2.535891         1.756210
 H        -0.758180         1.239737         3.029381
 H        -3.993454         0.710788         3.048577
 H        -4.684100         1.515169         1.615091
 H        -2.941334        -2.227109         2.094750
 H        -2.882999        -1.785546         0.387287
 H        -1.488743        -0.785565         2.732418
