19
Iteration:  1154
 O         0.313139        -0.185867         0.353726
 C        -0.822121         0.249023         0.982474
 C        -1.897008         0.895110         0.171608
 C        -2.440485         0.943427         1.650404
 C        -0.926901         1.472429         2.001572
 C        -3.965875         0.786843         1.897651
 O        -4.213004        -0.505340         1.298871
 C        -3.026945        -1.298057         1.333390
 C        -1.861197        -0.494502         1.785598
 H         1.208032         0.229493         0.805503
 H        -1.693961         1.902989        -0.246036
 H        -2.446976         0.276728        -0.515097
 H        -0.783454         2.555928         1.692685
 H        -0.537589         1.336385         2.936378
 H        -4.153780         0.725857         3.035411
 H        -4.700369         1.528311         1.513866
 H        -3.310432        -2.152950         1.988443
 H        -3.069580        -1.801849         0.335172
 H        -1.498910        -0.907729         2.726609
