19
Iteration:   531charge 0 multiplicity 1
 O         0.345215        -0.135996         0.440969
 C        -0.869971         0.327419         0.966215
 C        -1.981996         0.880261         0.128580
 C        -2.428455         0.968410         1.637479
 C        -0.966724         1.573665         1.933653
 C        -3.858468         0.889857         1.856827
 O        -4.196518        -0.548364         1.416503
 C        -3.040236        -1.431942         1.324602
 C        -1.818846        -0.574472         1.738019
 H         0.703627        -1.014783         0.885463
 H        -1.819913         1.838645        -0.407620
 H        -2.573027         0.183631        -0.400116
 H        -0.926601         2.631872         1.395353
 H        -0.541391         1.647744         2.998997
 H        -4.155759         0.990532         2.896398
 H        -4.563246         1.494695         1.256485
 H        -3.147267        -2.255812         2.098767
 H        -3.006149        -1.972933         0.365038
 H        -1.440168        -0.899587         2.760043
