19
Iteration:  4766charge 0 multiplicity 1
 O         0.402997        -0.101199         0.326734
 C        -0.809084         0.236626         0.940777
 C        -1.957739         0.843244        -0.016286
 C        -2.521726         1.041535         1.448463
 C        -1.006103         1.451469         1.865849
 C        -3.917689         0.798241         1.857927
 O        -4.149052        -0.595909         1.483543
 C        -3.011311        -1.414938         1.627184
 C        -1.918118        -0.390434         1.876150
 H         0.978878         0.152461         0.941473
 H        -1.585720         1.757468        -0.528290
 H        -2.394303         0.124441        -0.680315
 H        -0.522438         2.392775         1.459945
 H        -0.716148         1.337133         2.935931
 H        -4.259338         1.124345         2.838520
 H        -4.712268         1.291795         1.222783
 H        -3.111060        -2.054637         2.535484
 H        -2.985299        -2.010520         0.721006
 H        -1.722826        -0.465117         2.976356
