19
Iteration:  1985
 O         0.557505        -0.062652         0.459381
 C        -0.778000         0.291038         0.900769
 C        -1.897704         0.889897         0.016552
 C        -2.455511         0.941838         1.554370
 C        -1.027603         1.494178         1.885532
 C        -3.884795         0.739072         1.993221
 O        -4.329459        -0.540057         1.545594
 C        -3.141686        -1.366510         1.352185
 C        -1.929899        -0.482455         1.669825
 H         1.023712        -0.650852         0.953389
 H        -1.717695         1.895694        -0.391973
 H        -2.328658         0.185101        -0.755644
 H        -0.597531         2.432856         1.412587
 H        -0.715634         1.367682         2.867181
 H        -3.872551         0.747714         3.120672
 H        -4.540748         1.551380         1.638021
 H        -3.225965        -2.118544         2.117440
 H        -3.183504        -1.902339         0.363940
 H        -1.777471        -0.657693         2.719005
