19
Iteration:   716charge 0 multiplicity 1
 O         0.469664        -0.110262         0.597261
 C        -0.837884         0.255955         0.867553
 C        -1.902742         1.025125         0.084498
 C        -2.450850         0.987375         1.557267
 C        -0.978836         1.413209         1.907252
 C        -3.925997         0.812955         1.777133
 O        -4.213486        -0.588135         1.769964
 C        -3.127366        -1.323418         1.211474
 C        -1.852744        -0.525905         1.657670
 H         0.697690        -1.060163         0.373196
 H        -1.730250         1.948439        -0.394734
 H        -2.342710         0.434780        -0.716790
 H        -0.760344         2.389083         1.519925
 H        -0.762464         1.250585         3.010729
 H        -4.326940         1.192836         2.790192
 H        -4.612902         1.296800         1.046947
 H        -3.161900        -2.411308         1.569911
 H        -3.357273        -1.395689         0.128318
 H        -1.487608        -0.922722         2.656079
