19
Iteration:  1408charge 0 multiplicity 1
 O         0.395796        -0.188429         0.464325
 C        -0.788935         0.350017         0.895791
 C        -2.010725         0.900776         0.037279
 C        -2.383262         0.880648         1.572680
 C        -1.127921         1.442427         2.024315
 C        -3.836114         0.823805         1.969616
 O        -4.246782        -0.450494         1.479072
 C        -3.068413        -1.312814         1.213310
 C        -1.793514        -0.556451         1.702569
 H         1.084859        -0.217717         1.170695
 H        -1.735457         1.844586        -0.346475
 H        -2.331037         0.138233        -0.698869
 H        -0.926772         2.620334         1.941592
 H        -1.031332         1.131307         3.078104
 H        -3.888334         0.938948         3.083130
 H        -4.577337         1.490255         1.530382
 H        -3.138185        -2.233550         1.906003
 H        -3.062942        -1.724054         0.214510
 H        -1.341851        -0.816926         2.629323
