19
Iteration:  1035charge 0 multiplicity 1
 O         0.455159        -0.232449         0.574050
 C        -0.792511         0.331207         0.974520
 C        -1.931084         1.007276         0.075561
 C        -2.427848         0.940394         1.497955
 C        -1.097231         1.491654         2.033622
 C        -3.853359         0.801170         1.798857
 O        -4.202996        -0.542482         1.725597
 C        -3.136790        -1.322019         1.178701
 C        -1.831597        -0.574057         1.606877
 H         0.556014        -0.315839        -0.433332
 H        -1.765263         1.911409        -0.515818
 H        -2.475006         0.237699        -0.450086
 H        -0.921496         2.645096         1.832651
 H        -0.931182         1.327257         3.073119
 H        -4.017826         1.134819         2.772043
 H        -4.502606         1.463266         1.154637
 H        -3.052814        -2.367825         1.589355
 H        -3.248432        -1.571285         0.174383
 H        -1.493820        -0.888516         2.629265
