19
Iteration:  4290
 O         0.544245        -0.159450         0.580479
 C        -0.763768         0.317761         0.872058
 C        -1.913941         0.754335        -0.063625
 C        -2.509882         0.944964         1.390018
 C        -1.189084         1.639604         1.844767
 C        -3.960441         0.843085         1.733590
 O        -4.172704        -0.647376         1.958759
 C        -3.078585        -1.357807         1.393194
 C        -1.859795        -0.464714         1.694635
 H         0.763916         0.217622        -0.192127
 H        -1.699949         1.597217        -0.782135
 H        -2.484279         0.039251        -0.603583
 H        -0.830563         2.623496         1.557050
 H        -0.871157         1.394759         2.836893
 H        -3.954973         1.282335         2.758529
 H        -4.593110         1.368759         1.010671
 H        -2.891235        -2.204648         1.989020
 H        -3.276120        -1.645231         0.335627
 H        -1.466198        -0.610293         2.705314
