19
Iteration:  4468charge 0 multiplicity 1
 O         0.328965        -0.211703         0.285929
 C        -0.797762         0.362696         0.913638
 C        -1.924367         0.828064         0.074021
 C        -2.504037         0.941126         1.440841
 C        -0.904290         1.641781         1.876202
 C        -4.057037         0.795160         1.769158
 O        -4.193084        -0.703040         1.493574
 C        -2.931469        -1.339650         1.687020
 C        -1.844812        -0.335258         1.879363
 H         0.603040        -0.909898         0.868912
 H        -1.652356         1.604802        -0.631136
 H        -2.530258         0.015042        -0.494456
 H        -0.913176         2.632762         1.358208
 H        -0.559178         1.596489         2.955313
 H        -4.278042         1.159377         2.798442
 H        -4.932076         1.321816         1.193164
 H        -2.814999        -1.891280         2.627259
 H        -2.679728        -2.036058         0.838586
 H        -1.520692        -0.298886         2.918316
