19
Iteration:  4213charge 0 multiplicity 1
 O         0.326624        -0.289047         0.443426
 C        -0.831467         0.324965         0.850804
 C        -2.108522         0.689511         0.078917
 C        -2.475689         0.969493         1.566430
 C        -1.114994         1.654476         1.705894
 C        -3.900547         0.762364         1.932855
 O        -4.137276        -0.548023         1.345263
 C        -2.889266        -1.345051         1.575818
 C        -1.734487        -0.364654         1.941865
 H         1.100885         0.374262         0.758427
 H        -2.081852         1.700409        -0.374786
 H        -2.494380        -0.096934        -0.565704
 H        -0.967435         2.656607         1.308955
 H        -0.792722         1.687341         2.738491
 H        -4.065130         0.956914         2.962188
 H        -4.606579         1.416419         1.449256
 H        -3.002982        -2.133782         2.282913
 H        -2.734770        -1.842751         0.599061
 H        -1.394459        -0.340484         2.980957
