19
Iteration:  3535
 O         0.409861        -0.190552         0.599484
 C        -0.827581         0.380216         0.825174
 C        -2.023790         0.814933        -0.033546
 C        -2.444866         0.842104         1.506359
 C        -1.114885         1.560243         1.762110
 C        -3.822935         0.812134         1.911080
 O        -4.240930        -0.549249         1.617060
 C        -2.984205        -1.382558         1.497573
 C        -1.825486        -0.474929         1.743928
 H         1.025058         0.465690         0.186455
 H        -2.166548         1.879564        -0.548796
 H        -2.459928         0.090931        -0.674151
 H        -0.935229         2.532390         1.240735
 H        -0.736760         1.605402         2.763185
 H        -3.838753         1.101766         3.000461
 H        -4.339489         1.566634         1.315488
 H        -3.115968        -2.189451         2.171181
 H        -2.956855        -1.832707         0.450112
 H        -1.324648        -0.730348         2.685525
