19
Iteration:  4065
 O         0.429756        -0.284873         0.531577
 C        -0.808058         0.377403         0.866399
 C        -1.923418         0.816271        -0.109330
 C        -2.492047         0.912941         1.324342
 C        -1.229685         1.634459         1.763913
 C        -3.910283         0.818261         1.762290
 O        -4.153961        -0.608936         1.965901
 C        -2.950927        -1.371431         1.484490
 C        -1.845128        -0.435984         1.793211
 H         1.147943         0.235376         0.446564
 H        -1.792951         1.769619        -0.723800
 H        -2.307396         0.055914        -0.760824
 H        -1.226894         2.632665         1.256341
 H        -0.890317         1.574764         2.810847
 H        -4.020245         1.311035         2.713203
 H        -4.576198         1.138339         0.909680
 H        -2.917963        -2.325841         2.058600
 H        -3.084464        -1.392344         0.431582
 H        -1.497033        -0.445585         2.889509
