19
Iteration:  3286charge 0 multiplicity 1
 O         0.365451        -0.173807         0.482173
 C        -0.909154         0.302257         0.886671
 C        -2.059725         0.849752         0.031163
 C        -2.453631         0.977611         1.580895
 C        -0.928716         1.561013         1.741689
 C        -3.947465         0.788400         1.760215
 O        -4.136735        -0.648444         1.489247
 C        -2.914944        -1.367542         1.681571
 C        -1.842090        -0.341204         1.873322
 H         0.352932        -0.700894        -0.457803
 H        -1.987357         1.794262        -0.501174
 H        -2.621648         0.164214        -0.454316
 H        -0.854529         2.573438         1.206070
 H        -0.422009         1.568208         2.723060
 H        -4.378994         0.993945         2.719053
 H        -4.592261         1.283009         1.016240
 H        -2.904038        -2.171746         2.479459
 H        -2.720893        -1.928549         0.766134
 H        -1.526574        -0.376665         2.899019
