19
Iteration:  3446
 O         0.460648        -0.158018         0.436596
 C        -0.800663         0.380639         0.889596
 C        -1.965626         0.804415         0.015274
 C        -2.471316         0.931589         1.416601
 C        -1.101237         1.566249         1.865820
 C        -3.924181         0.806762         1.654875
 O        -4.174097        -0.606124         1.937043
 C        -2.994576        -1.319204         1.442201
 C        -1.861121        -0.440576         1.709757
 H         0.684497        -1.062241         0.879587
 H        -1.795152         1.867387        -0.405327
 H        -2.613097         0.147643        -0.691203
 H        -0.798637         2.605695         1.603877
 H        -0.788209         1.266751         2.880640
 H        -4.427246         1.310462         2.519540
 H        -4.495030         1.091562         0.750404
 H        -3.046684        -2.200217         2.065628
 H        -3.106417        -1.688153         0.370934
 H        -1.436784        -0.580503         2.726798
