19
Iteration:   511
 O         0.511809        -0.054863         0.436639
 C        -0.750761         0.303403         0.910126
 C        -1.940996         0.822448         0.074844
 C        -2.445612         0.874644         1.555358
 C        -1.082877         1.465934         1.922226
 C        -3.906672         0.829844         1.889261
 O        -4.276650        -0.496637         1.547420
 C        -3.062575        -1.373259         1.307358
 C        -1.877079        -0.491300         1.840393
 H         0.540289        -0.947193         0.340420
 H        -1.828902         1.854375        -0.350911
 H        -2.430291         0.166184        -0.673962
 H        -0.698875         2.488580         1.518715
 H        -0.684259         1.389061         2.923141
 H        -4.287960         1.062804         2.941364
 H        -4.476746         1.539364         1.205080
 H        -3.241869        -2.305618         1.812731
 H        -2.861826        -1.576761         0.280844
 H        -1.657935        -0.734848         2.864510
