19
Iteration:  1456charge 0 multiplicity 1
 O         0.331583        -0.121701         0.379176
 C        -0.841291         0.243687         0.987592
 C        -1.968905         1.003555         0.129219
 C        -2.422668         0.922430         1.619664
 C        -0.915905         1.497673         1.931770
 C        -3.976176         0.738243         1.973915
 O        -4.202103        -0.507520         1.194287
 C        -2.987132        -1.329533         1.407498
 C        -1.880317        -0.538152         1.904053
 H         0.348260        -1.017219         0.356989
 H        -1.663410         2.049279        -0.145018
 H        -2.594074         0.483547        -0.566164
 H        -0.545683         2.295384         1.420878
 H        -0.276329         1.322930         2.879182
 H        -4.220081         0.765739         3.102057
 H        -4.502510         1.629456         1.448864
 H        -3.211588        -2.211326         2.066595
 H        -2.679302        -1.755940         0.433366
 H        -1.490091        -0.657554         2.971105
