19
Iteration:  3443
 O         0.447866        -0.163136         0.432769
 C        -0.810058         0.376955         0.903615
 C        -1.949087         0.828738         0.000070
 C        -2.472472         0.938526         1.397619
 C        -1.099670         1.563570         1.858648
 C        -3.933222         0.782590         1.654438
 O        -4.186403        -0.597972         1.931618
 C        -3.000365        -1.313674         1.455878
 C        -1.837410        -0.436346         1.742707
 H         0.589214        -0.983978         0.753161
 H        -1.778415         1.781620        -0.412676
 H        -2.551212         0.188558        -0.712309
 H        -0.718086         2.541869         1.633266
 H        -0.809402         1.253818         2.891994
 H        -4.389059         1.282919         2.501931
 H        -4.534998         1.001941         0.783306
 H        -2.974164        -2.275004         2.006803
 H        -3.048164        -1.588172         0.394775
 H        -1.406093        -0.618269         2.782863
