19
Iteration:  4590
 O         0.544911        -0.039157         0.473912
 C        -0.723109         0.400420         0.808429
 C        -1.950777         0.722072        -0.086909
 C        -2.428398         0.871828         1.420082
 C        -1.151346         1.491507         1.807644
 C        -3.908843         0.843089         1.817975
 O        -4.287788        -0.525380         1.861676
 C        -3.086866        -1.396320         1.466359
 C        -1.875577        -0.546315         1.745189
 H         1.159994         0.164259         1.337161
 H        -1.864396         1.679668        -0.660184
 H        -2.252046        -0.151571        -0.628324
 H        -0.897150         2.556689         1.526723
 H        -1.007788         1.398034         2.917109
 H        -4.066574         1.526068         2.711094
 H        -4.480357         1.336676         0.896946
 H        -3.087148        -2.195216         2.224170
 H        -3.373037        -1.755213         0.481238
 H        -1.413289        -0.875109         2.681918
