19
Iteration:  4517charge 0 multiplicity 1
 O         0.388822        -0.248714         0.443742
 C        -0.822874         0.329122         0.922686
 C        -1.951696         0.714986        -0.020652
 C        -2.464300         0.979142         1.460364
 C        -1.184520         1.696774         1.760175
 C        -3.935050         0.818250         1.832590
 O        -4.155909        -0.589598         1.749442
 C        -2.941910        -1.367252         1.396912
 C        -1.795011        -0.414310         1.842453
 H         0.919233        -0.441040         1.286853
 H        -2.019304         1.689618        -0.543510
 H        -2.344530        -0.090172        -0.574013
 H        -0.896071         2.573710         1.159200
 H        -0.877334         1.705060         2.809503
 H        -4.201610         1.164762         2.826758
 H        -4.512142         1.417574         1.193413
 H        -3.111059        -2.393282         1.874718
 H        -2.861376        -1.463061         0.297432
 H        -1.345463        -0.547240         2.846939
