19
Iteration:  2098
 O         0.469338        -0.167629         0.414446
 C        -0.721500         0.354172         0.933844
 C        -2.058399         0.867168         0.031736
 C        -2.422640         0.886924         1.502538
 C        -1.063649         1.503633         1.987792
 C        -3.827429         0.753467         1.977860
 O        -4.231318        -0.474452         1.449611
 C        -3.109034        -1.344397         1.335690
 C        -1.888459        -0.506034         1.720647
 H         1.284702        -0.047639         1.120854
 H        -1.815316         1.813509        -0.488439
 H        -2.531048         0.088769        -0.578076
 H        -0.874986         2.523889         1.876308
 H        -0.953027         1.241362         3.119556
 H        -3.845475         0.849278         3.139397
 H        -4.493355         1.571263         1.653842
 H        -3.402303        -2.217238         1.948915
 H        -3.193822        -1.835455         0.272959
 H        -1.556774        -0.605609         2.814176
