19
Iteration:  3037charge 0 multiplicity 1
 O         0.514639        -0.092500         0.498680
 C        -0.775042         0.258106         0.881549
 C        -2.018527         0.679292         0.009426
 C        -2.482706         0.971552         1.453858
 C        -0.992199         1.539945         1.720675
 C        -3.964392         0.786479         1.904643
 O        -4.196391        -0.540549         1.618618
 C        -3.023447        -1.373657         1.518587
 C        -1.923550        -0.416173         1.806592
 H         0.906579         0.727425         0.526102
 H        -1.867023         1.640666        -0.648434
 H        -2.473072        -0.054794        -0.600752
 H        -0.799666         2.324499         0.986482
 H        -0.630244         1.681040         2.714203
 H        -4.043871         0.911656         3.020860
 H        -4.773667         1.377573         1.509875
 H        -3.163834        -2.172613         2.256374
 H        -2.987547        -1.903704         0.505538
 H        -1.764951        -0.466131         2.910455
