19
Iteration:  2049
 O         0.322039        -0.251231         0.283953
 C        -0.820866         0.289125         0.995045
 C        -1.996552         0.996457         0.144002
 C        -2.417008         1.007622         1.670387
 C        -0.913247         1.584746         1.955071
 C        -3.962781         0.783583         1.867183
 O        -4.208151        -0.565655         1.297070
 C        -2.962263        -1.399315         1.383309
 C        -1.887123        -0.522972         1.924662
 H         0.891980        -0.391211         0.951089
 H        -2.106348         2.060831        -0.151966
 H        -2.385108         0.194877        -0.485454
 H        -0.425007         2.406769         1.280329
 H        -0.477594         1.563514         2.898327
 H        -4.200028         0.713723         2.934436
 H        -4.694084         1.505728         1.450170
 H        -3.156291        -2.369171         1.817033
 H        -2.839477        -1.613391         0.382142
 H        -1.583289        -0.587741         2.939201
