19
Iteration:  3111
 O         0.361749        -0.273358         0.638150
 C        -0.852818         0.378329         0.860201
 C        -1.817877         0.942754        -0.160777
 C        -2.547951         0.919885         1.389604
 C        -0.973360         1.624790         1.768723
 C        -4.052590         0.690547         1.747368
 O        -4.108347        -0.654468         1.952275
 C        -2.984548        -1.362630         1.413521
 C        -1.881013        -0.361289         1.824897
 H         0.683629         0.108982        -0.153851
 H        -1.595604         1.940728        -0.640259
 H        -2.361878         0.220595        -0.765886
 H        -0.668899         2.449077         1.139679
 H        -0.502882         1.402386         2.753943
 H        -4.317949         1.186622         2.706745
 H        -4.730698         1.097181         0.934294
 H        -3.106231        -2.392033         1.829269
 H        -3.169344        -1.376411         0.368174
 H        -1.628771        -0.502057         2.882042
