19
Iteration:  2845charge 0 multiplicity 1
 O         0.458957        -0.222609         0.528273
 C        -0.755959         0.298538         0.894417
 C        -1.899162         0.814650        -0.007442
 C        -2.455135         0.880742         1.461638
 C        -1.084851         1.604551         1.818443
 C        -3.941815         0.855753         1.820275
 O        -4.260511        -0.648463         1.856215
 C        -3.051653        -1.338924         1.302496
 C        -1.836949        -0.413929         1.761917
 H         1.125830         0.613101         0.355533
 H        -1.812167         1.775978        -0.616254
 H        -2.368916         0.051782        -0.674437
 H        -0.971497         2.642327         1.393727
 H        -0.904793         1.494176         2.836263
 H        -4.319007         1.388071         2.721544
 H        -4.494971         1.219798         0.923524
 H        -3.016056        -2.314334         1.870059
 H        -3.144099        -1.516152         0.215299
 H        -1.629057        -0.559492         2.816804
