19
Iteration:   797charge 0 multiplicity 1
 O         0.548059        -0.184976         0.548725
 C        -0.754290         0.381270         0.834547
 C        -2.043515         0.876896         0.039586
 C        -2.487247         0.932106         1.610754
 C        -1.027350         1.487433         1.912970
 C        -3.938360         0.767728         1.987541
 O        -4.271181        -0.495007         1.494514
 C        -3.054890        -1.294919         1.267821
 C        -1.821839        -0.528529         1.698712
 H         0.543199        -1.087273         0.881580
 H        -1.770431         1.842871        -0.412491
 H        -2.674168         0.194249        -0.513988
 H        -0.703403         2.565966         1.695726
 H        -0.597657         1.201842         2.840502
 H        -4.078959         0.815724         3.042400
 H        -4.552451         1.525092         1.441369
 H        -3.173432        -2.212451         1.828464
 H        -3.091759        -1.465922         0.156749
 H        -1.465637        -0.671972         2.721474
