19
Iteration:  3749charge 0 multiplicity 1
 O         0.425348        -0.112358         0.466537
 C        -0.703790         0.386182         0.846449
 C        -1.821058         0.817021        -0.066356
 C        -2.490134         0.917768         1.408505
 C        -1.210907         1.547756         1.961076
 C        -3.997077         0.836033         1.693104
 O        -4.128039        -0.561972         2.008010
 C        -3.023075        -1.397616         1.422321
 C        -1.833836        -0.508178         1.639155
 H         0.255401        -0.987462         0.360020
 H        -1.664805         1.843262        -0.428734
 H        -2.369966         0.069077        -0.727953
 H        -1.006963         2.492720         1.394275
 H        -0.908027         1.437616         2.998401
 H        -4.363444         1.458943         2.571474
 H        -4.564993         1.115792         0.753616
 H        -2.899604        -2.293277         2.115443
 H        -3.333211        -1.641521         0.434343
 H        -1.600756        -0.602460         2.699152
