19
Iteration:  1927charge 0 multiplicity 1
 O         0.387587        -0.241253         0.450301
 C        -0.770997         0.366225         0.914867
 C        -1.836433         0.912443         0.056111
 C        -2.470678         0.976403         1.536480
 C        -1.118276         1.535541         1.950127
 C        -3.956691         0.836556         1.812065
 O        -4.202460        -0.585727         1.780354
 C        -3.074244        -1.337110         1.197293
 C        -1.812169        -0.609761         1.711739
 H         1.285384         0.243019         0.797651
 H        -1.700295         1.985040        -0.352067
 H        -2.282903         0.294643        -0.723527
 H        -0.686332         2.534509         1.708229
 H        -0.756478         1.256495         2.976775
 H        -4.269608         1.171409         2.835676
 H        -4.669089         1.299387         1.063907
 H        -3.300770        -2.367824         1.572826
 H        -3.083082        -1.327575         0.111592
 H        -1.693763        -0.742506         2.780236
