19
Iteration:   534charge 0 multiplicity 1
 O         0.318910        -0.148901         0.443157
 C        -0.860242         0.314764         0.957947
 C        -1.982819         0.891781         0.134796
 C        -2.419494         0.977381         1.632600
 C        -0.980837         1.564013         1.956741
 C        -3.846199         0.851139         1.854840
 O        -4.209554        -0.527594         1.406014
 C        -3.026312        -1.443375         1.332304
 C        -1.799416        -0.540755         1.733060
 H         0.740890        -0.986462         0.943550
 H        -1.876824         1.846433        -0.417821
 H        -2.643517         0.148541        -0.434939
 H        -0.856190         2.576457         1.381217
 H        -0.529515         1.713396         2.916206
 H        -4.212574         0.960649         2.957082
 H        -4.544337         1.511750         1.249645
 H        -3.133134        -2.184483         2.095492
 H        -2.906770        -1.971315         0.405022
 H        -1.471840        -0.878337         2.683588
