19
Iteration:  3584charge 0 multiplicity 1
 O         0.255743        -0.293033         0.347790
 C        -0.767242         0.419078         0.939461
 C        -1.917612         0.779632         0.043099
 C        -2.409696         0.939583         1.549306
 C        -1.042089         1.710488         1.886170
 C        -3.945308         0.764112         1.898786
 O        -4.193253        -0.614114         1.321425
 C        -2.935241        -1.404176         1.553607
 C        -1.814498        -0.336700         2.026859
 H         0.149727        -0.099882        -0.675664
 H        -1.751571         1.630217        -0.569747
 H        -2.334539        -0.190821        -0.477846
 H        -0.906126         2.727333         1.478191
 H        -0.590836         1.415660         2.892061
 H        -4.017860         0.787776         3.005096
 H        -4.638980         1.491427         1.407032
 H        -3.152257        -2.198036         2.377036
 H        -2.855983        -1.878869         0.571116
 H        -1.588038        -0.350223         3.113014
