19
Iteration:  3746
 O         0.440769        -0.092138         0.480647
 C        -0.722757         0.372414         0.833480
 C        -1.826733         0.855987        -0.065955
 C        -2.478682         0.907582         1.420377
 C        -1.200867         1.534029         1.929681
 C        -4.003900         0.836968         1.694905
 O        -4.145384        -0.575517         2.028048
 C        -3.027331        -1.392570         1.418941
 C        -1.831344        -0.481679         1.631285
 H         0.222606        -1.182525         0.518854
 H        -1.718040         1.835728        -0.411829
 H        -2.371838         0.008421        -0.699711
 H        -0.932263         2.375809         1.341518
 H        -0.890439         1.393857         2.978088
 H        -4.371852         1.444222         2.530348
 H        -4.478943         1.096073         0.690452
 H        -2.917500        -2.240637         2.107880
 H        -3.263315        -1.638535         0.352660
 H        -1.564408        -0.708029         2.714741
