19
Iteration:   324charge 0 multiplicity 1
 O         0.610955        -0.186211         0.589280
 C        -0.743888         0.251957         0.898349
 C        -1.989914         0.723972        -0.043197
 C        -2.470855         0.929113         1.511883
 C        -1.173306         1.618290         1.822095
 C        -3.943362         0.847267         2.048744
 O        -4.261089        -0.460740         1.492250
 C        -3.051547        -1.345602         1.369965
 C        -1.813614        -0.526173         1.787469
 H         0.652101        -0.026780        -0.519492
 H        -1.774790         1.759169        -0.587668
 H        -2.599776        -0.014025        -0.497048
 H        -1.031699         2.505402         1.236375
 H        -0.801085         1.789341         2.875999
 H        -3.899734         0.796820         3.200304
 H        -4.796924         1.522861         1.730964
 H        -3.134764        -2.290879         2.020799
 H        -3.137302        -1.714685         0.272166
 H        -1.496290        -0.675818         2.824692
