19
Iteration:    81charge 0 multiplicity 1
 O         0.377031        -0.195938         0.448309
 C        -0.806093         0.287327         0.970422
 C        -1.900467         0.815894        -0.044541
 C        -2.468078         0.988734         1.379350
 C        -1.135745         1.556869         1.943800
 C        -3.918417         0.864716         1.750728
 O        -4.170709        -0.571236         1.818734
 C        -2.994912        -1.355259         1.382661
 C        -1.833432        -0.513179         1.707886
 H         1.155307        -0.056752         1.163712
 H        -1.676213         1.693783        -0.733905
 H        -2.501107         0.016588        -0.676688
 H        -0.853759         2.578334         1.573718
 H        -0.808029         1.436271         2.971330
 H        -4.122099         1.320101         2.763454
 H        -4.627473         1.293794         0.959204
 H        -3.016914        -2.242314         2.108785
 H        -3.148213        -1.703938         0.325092
 H        -1.684505        -0.519192         2.792131
