19
Iteration:   541charge 0 multiplicity 1
 O         0.299277        -0.185044         0.415027
 C        -0.810844         0.292606         0.933764
 C        -2.008214         0.906001         0.130112
 C        -2.384826         0.970445         1.619295
 C        -1.039533         1.553286         1.964371
 C        -3.881603         0.762020         1.885926
 O        -4.219866        -0.494248         1.372651
 C        -2.976892        -1.408209         1.360523
 C        -1.819273        -0.470014         1.751240
 H         0.733735        -0.839338         1.204400
 H        -1.906208         1.875727        -0.388337
 H        -2.564759         0.236130        -0.446660
 H        -0.667406         2.440666         1.351388
 H        -0.528655         1.572880         2.998324
 H        -4.157458         0.866080         2.899408
 H        -4.365942         1.524570         1.270042
 H        -3.143307        -2.160820         2.202769
 H        -2.879102        -1.879843         0.354449
 H        -1.409482        -0.750030         2.797637
