19
Iteration:  2968
 O         0.404637        -0.262766         0.485365
 C        -0.878954         0.259341         0.862663
 C        -1.995382         0.808805         0.042666
 C        -2.494261         1.011492         1.499371
 C        -1.004801         1.607587         1.800741
 C        -3.966463         0.731234         1.869543
 O        -4.218889        -0.566923         1.409538
 C        -2.811643        -1.357963         1.595432
 C        -1.861350        -0.326910         1.944840
 H         0.525402         0.016199        -0.468926
 H        -1.889327         1.696964        -0.605249
 H        -2.670388        -0.009438        -0.541565
 H        -0.902593         2.530613         1.354987
 H        -0.671794         1.638111         2.876193
 H        -4.085624         0.890313         2.973048
 H        -4.793723         1.348834         1.391563
 H        -2.904580        -2.234124         2.316478
 H        -2.648817        -1.837843         0.636962
 H        -1.442745        -0.285013         2.965077
