19
Iteration:  2559charge 0 multiplicity 1
 O         0.460792        -0.040747         0.563108
 C        -0.837608         0.318871         0.958993
 C        -1.918365         0.880496        -0.001643
 C        -2.464753         0.857483         1.535330
 C        -1.064384         1.459601         1.836729
 C        -3.885740         0.876760         1.882077
 O        -4.221679        -0.568969         1.724596
 C        -3.004103        -1.358547         1.250724
 C        -1.921777        -0.524680         1.695022
 H         0.460312        -0.955456         0.331739
 H        -1.534784         1.802317        -0.491670
 H        -2.345153         0.351512        -0.917464
 H        -0.706715         2.348857         1.410224
 H        -0.808261         1.442266         2.872138
 H        -4.090078         1.066025         2.935745
 H        -4.571907         1.480368         1.272480
 H        -2.984813        -2.318199         1.818264
 H        -3.072910        -1.540044         0.161123
 H        -1.677480        -0.750283         2.728778
