19
Iteration:    31
 O         0.602508         0.088944         0.580892
 C        -0.754619         0.257568         0.839495
 C        -1.991908         0.626494        -0.080818
 C        -2.480371         0.877500         1.437159
 C        -1.135953         1.491248         1.727466
 C        -3.852314         0.872562         1.991738
 O        -4.305091        -0.461361         1.688001
 C        -3.154139        -1.369714         1.384526
 C        -1.809076        -0.563989         1.743031
 H         0.887368        -0.284223         1.361714
 H        -1.771714         1.505701        -0.683865
 H        -2.298444        -0.104794        -0.707879
 H        -0.874750         2.408967         1.248798
 H        -0.939784         1.348764         2.859300
 H        -3.876696         1.094783         3.039303
 H        -4.551504         1.578737         1.628002
 H        -3.330613        -2.184692         2.023174
 H        -3.270779        -1.571249         0.335884
 H        -1.257413        -0.838279         2.681531
