19
Iteration:  3122
 O         0.382803        -0.294985         0.613985
 C        -0.788239         0.346829         0.916219
 C        -1.852712         0.921452        -0.027047
 C        -2.532654         0.985886         1.388511
 C        -1.031945         1.582219         1.686807
 C        -4.050428         0.737272         1.752270
 O        -4.151871        -0.684404         1.998613
 C        -2.987248        -1.312242         1.372622
 C        -1.861435        -0.391112         1.742970
 H         0.755965         0.066983        -0.321455
 H        -1.445486         1.881292        -0.468281
 H        -2.179364         0.302574        -0.871076
 H        -0.994198         2.608923         1.366040
 H        -0.606349         1.683107         2.710247
 H        -4.515333         1.315385         2.575412
 H        -4.632985         0.888714         0.800175
 H        -2.874195        -2.280204         1.916300
 H        -3.056379        -1.533426         0.331144
 H        -1.559105        -0.431642         2.796979
