19
Iteration:  3717
 O         0.518262        -0.089334         0.495914
 C        -0.778926         0.274643         0.885769
 C        -1.986288         0.874391        -0.066989
 C        -2.447101         0.973385         1.319454
 C        -1.003404         1.547097         1.807545
 C        -4.007059         0.769171         1.747711
 O        -4.121622        -0.645500         2.014636
 C        -3.127576        -1.376243         1.346191
 C        -1.902389        -0.445328         1.759933
 H         0.834920        -0.487014         1.498914
 H        -1.644247         1.872550        -0.506487
 H        -2.710267         0.393593        -0.768375
 H        -0.641849         2.537261         1.316050
 H        -0.602163         1.482076         2.830184
 H        -4.232167         1.216204         2.759790
 H        -4.630758         1.129000         0.927420
 H        -3.278984        -2.460147         1.720399
 H        -3.126434        -1.395944         0.234352
 H        -1.941235        -0.650766         2.833206
