19
Iteration:   375
 O         0.489445        -0.115148         0.439843
 C        -0.764069         0.292849         0.885429
 C        -1.931327         0.838910         0.075516
 C        -2.465070         0.980619         1.478995
 C        -1.152365         1.466629         1.925270
 C        -3.899860         0.874697         1.799488
 O        -4.228303        -0.544344         1.689082
 C        -3.025003        -1.381428         1.394412
 C        -1.852165        -0.471215         1.729619
 H         0.430798        -1.011554         0.269221
 H        -1.681922         1.731518        -0.380460
 H        -2.281134         0.132110        -0.723923
 H        -0.875061         2.488595         1.776850
 H        -1.002950         1.233995         3.051343
 H        -4.321872         1.238363         2.734604
 H        -4.481213         1.382959         1.003820
 H        -2.964109        -2.140288         2.172494
 H        -3.144339        -1.737965         0.416578
 H        -1.441528        -0.685533         2.754240
