19
Iteration:  3076
 O         0.478746        -0.251130         0.534340
 C        -0.788437         0.336379         0.920484
 C        -1.944509         0.756511        -0.055434
 C        -2.501063         0.883187         1.431886
 C        -1.269662         1.609579         1.804493
 C        -3.936042         0.830150         1.835282
 O        -4.100505        -0.509632         1.804306
 C        -2.994036        -1.364471         1.415177
 C        -1.834427        -0.444412         1.729692
 H         1.151035         0.315849         0.077791
 H        -1.957586         1.571156        -0.704256
 H        -2.484156        -0.107160        -0.599239
 H        -1.027793         2.559134         1.307612
 H        -0.861335         1.627350         2.878116
 H        -4.049156         1.220011         2.858099
 H        -4.643907         1.421610         1.174348
 H        -3.024335        -2.281209         2.051719
 H        -3.081496        -1.693686         0.397840
 H        -1.518528        -0.463231         2.772183
