19
Iteration:  4840charge 0 multiplicity 1
 O         0.461570        -0.069701         0.515534
 C        -0.767668         0.281694         0.921467
 C        -2.007865         0.744635        -0.062422
 C        -2.500688         0.919974         1.431569
 C        -1.029060         1.519953         1.753200
 C        -3.930120         0.800331         1.944017
 O        -4.254617        -0.572101         1.598726
 C        -2.986900        -1.295307         1.449821
 C        -1.822007        -0.405302         1.849526
 H         0.609666        -1.044200         0.684841
 H        -1.691530         1.701898        -0.722182
 H        -2.558700         0.012761        -0.662973
 H        -0.764758         2.543974         1.448400
 H        -0.869201         1.416731         2.823511
 H        -4.227581         0.825309         3.002978
 H        -4.636452         1.527288         1.449778
 H        -3.125280        -2.193734         2.085596
 H        -2.828033        -1.555785         0.328115
 H        -1.354102        -0.464808         2.887977
