19
Iteration:  3039
 O         0.503519        -0.089891         0.499717
 C        -0.768221         0.264438         0.892935
 C        -2.002974         0.688003         0.001827
 C        -2.474817         0.967940         1.461765
 C        -1.007797         1.532071         1.715184
 C        -3.952414         0.779296         1.895128
 O        -4.218093        -0.541612         1.631238
 C        -3.028047        -1.380760         1.515085
 C        -1.915725        -0.411374         1.802920
 H         0.897320         0.752383         0.515044
 H        -1.818633         1.600788        -0.627521
 H        -2.509241        -0.058171        -0.530038
 H        -0.768140         2.321356         0.925027
 H        -0.587262         1.691380         2.694241
 H        -4.020587         0.869744         3.007296
 H        -4.739902         1.380432         1.491551
 H        -3.154410        -2.165515         2.238302
 H        -2.965912        -1.856884         0.473716
 H        -1.765471        -0.423770         2.901232
