19
Iteration:  3201
 O         0.594205        -0.145134         0.606997
 C        -0.767537         0.302024         0.821527
 C        -2.055222         0.704827        -0.029768
 C        -2.469854         0.945291         1.464847
 C        -0.993536         1.613587         1.638467
 C        -3.908014         0.811568         1.906815
 O        -4.271049        -0.634655         1.695279
 C        -3.119811        -1.375258         1.487031
 C        -1.930946        -0.391365         1.792279
 H         1.103927         0.580994         0.351401
 H        -1.952386         1.673497        -0.667583
 H        -2.726641         0.099348        -0.572532
 H        -0.662031         2.521307         1.144131
 H        -0.626028         1.425281         2.589430
 H        -3.992353         1.070550         3.017143
 H        -4.663284         1.379628         1.348863
 H        -2.833374        -2.088729         2.252638
 H        -3.071796        -1.848517         0.532245
 H        -1.476032        -0.386182         2.800338
