19
Iteration:  1591
 O         0.423234        -0.295371         0.523557
 C        -0.788515         0.340595         0.896119
 C        -1.816660         0.992891         0.009994
 C        -2.476992         1.026531         1.485748
 C        -0.995186         1.493008         1.980813
 C        -4.028181         0.836540         1.834252
 O        -4.175363        -0.725347         1.879642
 C        -3.071341        -1.283734         1.176781
 C        -1.932703        -0.465971         1.636299
 H         1.130868         0.274437         0.463576
 H        -1.475062         1.973852        -0.373871
 H        -2.197528         0.327768        -0.835511
 H        -0.730820         2.497513         1.559851
 H        -0.830411         1.226712         2.953252
 H        -4.495917         1.173368         2.849454
 H        -4.574805         1.257081         0.995275
 H        -2.927241        -2.269205         1.531696
 H        -3.241551        -1.452256         0.046655
 H        -1.975261        -0.680355         2.732889
