19
Iteration:  2171charge 0 multiplicity 1
 O         0.405050        -0.202916         0.388196
 C        -0.793928         0.321532         0.957197
 C        -1.808111         0.985634        -0.008177
 C        -2.462389         0.927473         1.460940
 C        -1.178863         1.507703         2.082237
 C        -3.947446         0.841243         1.834695
 O        -4.182136        -0.563598         1.791429
 C        -3.079012        -1.343324         1.208787
 C        -1.803731        -0.578467         1.666362
 H         1.039290        -0.668336         1.094781
 H        -1.711210         2.002985        -0.337056
 H        -2.388323         0.339717        -0.759688
 H        -0.907895         2.575170         1.875069
 H        -0.660228         1.287813         3.036180
 H        -4.248565         1.187266         2.815176
 H        -4.502554         1.350222         1.036259
 H        -3.093908        -2.296884         1.685214
 H        -3.247102        -1.467438         0.152765
 H        -1.631179        -0.703225         2.704300
