19
Iteration:   421
 O         0.351548        -0.234983         0.497479
 C        -0.853321         0.277703         0.978048
 C        -1.863344         0.857359         0.019304
 C        -2.450641         0.987444         1.477091
 C        -1.032140         1.510136         1.907541
 C        -3.931395         0.823914         1.785757
 O        -4.131784        -0.659910         1.837551
 C        -3.020339        -1.290973         1.186667
 C        -1.952069        -0.390782         1.665232
 H         1.084114         0.011166         1.047003
 H        -1.604696         1.770192        -0.541057
 H        -2.465094         0.298788        -0.620850
 H        -0.654869         2.456925         1.517008
 H        -0.615225         1.442127         2.981630
 H        -4.253535         1.262361         2.808637
 H        -4.605895         1.324061         1.030072
 H        -2.924574        -2.162479         1.869354
 H        -3.111760        -1.499221         0.169278
 H        -1.795424        -0.605409         2.748611
