19
Iteration:   600charge 0 multiplicity 1
 O         0.372632        -0.225306         0.478076
 C        -0.809993         0.343406         0.929244
 C        -2.016533         0.877420         0.082848
 C        -2.382807         0.867277         1.592518
 C        -1.035741         1.507691         1.942845
 C        -3.866064         0.832773         1.915773
 O        -4.238618        -0.502714         1.361289
 C        -3.044237        -1.348308         1.361175
 C        -1.816800        -0.524207         1.823078
 H         1.045077         0.361461         0.474322
 H        -1.963998         1.903875        -0.335050
 H        -2.539006         0.186477        -0.688741
 H        -0.986593         2.637207         1.453475
 H        -0.483481         1.365729         2.867300
 H        -4.013093         0.938574         3.038842
 H        -4.535311         1.604911         1.461682
 H        -3.296432        -2.176663         1.996290
 H        -3.008498        -1.772157         0.365337
 H        -1.366382        -0.793128         2.762708
