19
Iteration:  4713charge 0 multiplicity 1
 O         0.532803         0.018668         0.399642
 C        -0.777829         0.271915         0.895100
 C        -2.048261         0.571283         0.008780
 C        -2.470778         0.929342         1.481494
 C        -1.084402         1.587260         1.787019
 C        -3.889889         0.891296         1.968692
 O        -4.223224        -0.461645         1.473185
 C        -3.040580        -1.407040         1.501597
 C        -1.836486        -0.483969         1.880499
 H         0.914138        -0.585930         0.984692
 H        -1.889885         1.325834        -0.706037
 H        -2.642868        -0.234765        -0.373635
 H        -0.956391         2.581816         1.317857
 H        -0.825535         1.629038         2.877051
 H        -3.850614         0.788045         3.086791
 H        -4.769908         1.465869         1.562853
 H        -3.250657        -2.276686         2.146320
 H        -3.018560        -1.892887         0.555241
 H        -1.546415        -0.733469         2.895043
