19
Iteration:  4711charge 0 multiplicity 1
 O         0.508909         0.019808         0.417313
 C        -0.786368         0.255950         0.900873
 C        -2.049913         0.582762         0.005432
 C        -2.464203         0.931375         1.453112
 C        -1.071562         1.587480         1.789315
 C        -3.880264         0.879731         1.987465
 O        -4.229062        -0.472084         1.475685
 C        -3.040981        -1.404243         1.490292
 C        -1.834344        -0.455354         1.884171
 H         0.954005        -0.586349         0.929641
 H        -1.798984         1.349752        -0.760827
 H        -2.645100        -0.190155        -0.390777
 H        -0.926622         2.577890         1.278825
 H        -0.748352         1.613801         2.858518
 H        -3.847220         0.766774         3.081541
 H        -4.793355         1.428001         1.537663
 H        -3.199162        -2.271732         2.164002
 H        -3.020500        -1.948794         0.544594
 H        -1.584814        -0.734647         2.932014
