19
Iteration:  2539charge 0 multiplicity 1
 O         0.460955        -0.169612         0.407428
 C        -0.830624         0.294795         0.897872
 C        -1.883714         0.902389         0.047419
 C        -2.447047         1.011564         1.467980
 C        -1.118734         1.555408         2.000140
 C        -3.926613         0.787962         1.804745
 O        -4.191503        -0.607724         1.761203
 C        -3.068992        -1.328233         1.207592
 C        -1.829148        -0.498142         1.791615
 H         0.766823        -0.895650         1.119252
 H        -1.839541         1.760793        -0.538999
 H        -2.407973         0.232333        -0.623822
 H        -0.746160         2.588631         1.740383
 H        -0.860421         1.305002         2.992940
 H        -4.124137         1.092425         2.831460
 H        -4.696672         1.241487         1.137215
 H        -3.252614        -2.318521         1.681616
 H        -3.103820        -1.359192         0.139986
 H        -1.451829        -0.630240         2.814904
