19
Iteration:  2155
 O         0.509879        -0.107940         0.395714
 C        -0.738086         0.324456         0.883963
 C        -1.921082         0.858015         0.084912
 C        -2.405437         0.886765         1.504593
 C        -1.139423         1.428115         2.024813
 C        -3.874814         0.893067         1.862516
 O        -4.283546        -0.565419         1.755151
 C        -3.044343        -1.359816         1.202755
 C        -1.936878        -0.467533         1.652493
 H         0.882229        -0.475798         1.166090
 H        -1.698742         1.809708        -0.475384
 H        -2.245780         0.120634        -0.580315
 H        -0.885406         2.495669         1.802352
 H        -1.207785         1.317310         3.150328
 H        -3.878236         1.266496         2.927585
 H        -4.500781         1.450884         1.123244
 H        -3.272339        -2.335001         1.781052
 H        -3.166498        -1.367315         0.083490
 H        -1.592516        -0.977568         2.614183
