19
Iteration:   686charge 0 multiplicity 1
 O         0.494607        -0.214815         0.613850
 C        -0.768034         0.304535         0.899410
 C        -1.938220         0.986462        -0.017984
 C        -2.462370         0.998730         1.457828
 C        -1.049859         1.475676         2.007294
 C        -3.884489         0.834214         1.850538
 O        -4.216103        -0.597773         1.793586
 C        -3.066020        -1.349691         1.153669
 C        -1.901151        -0.476528         1.692658
 H         0.528313        -0.787351        -0.311896
 H        -1.707199         1.946729        -0.459487
 H        -2.432392         0.195692        -0.682486
 H        -0.868691         2.528977         1.703764
 H        -0.973015         1.179020         2.990525
 H        -4.033573         1.087964         2.859164
 H        -4.623073         1.326534         1.166542
 H        -3.189499        -2.402026         1.512607
 H        -3.235871        -1.292608         0.049833
 H        -1.738862        -0.774170         2.748517
