19
Iteration:  2934
 O         0.447936        -0.130093         0.504565
 C        -0.878064         0.281946         0.910746
 C        -1.967351         0.784581         0.031558
 C        -2.447924         0.953099         1.531407
 C        -1.109730         1.689169         1.794168
 C        -3.894130         0.834270         1.863233
 O        -4.212426        -0.524866         1.527314
 C        -2.889404        -1.476767         1.480622
 C        -1.855151        -0.466501         1.845501
 H         0.204389        -1.038719        -0.086980
 H        -1.866589         1.637886        -0.642759
 H        -2.605589        -0.164495        -0.384939
 H        -1.078090         2.606884         1.271185
 H        -0.705545         1.740649         2.818148
 H        -4.006905         1.140142         2.942652
 H        -4.591552         1.378452         1.149711
 H        -3.011452        -2.277895         2.286180
 H        -2.875152        -1.749464         0.451156
 H        -1.393218        -0.698133         2.802953
