19
Iteration:    62charge 0 multiplicity 1
 O         0.522171        -0.072400         0.454559
 C        -0.722802         0.334540         0.909040
 C        -1.809712         0.770708        -0.072833
 C        -2.463227         0.942893         1.356909
 C        -1.101551         1.553298         1.786481
 C        -3.853465         0.831615         1.891452
 O        -4.307777        -0.593877         1.801374
 C        -3.187621        -1.451201         1.400249
 C        -1.980165        -0.443420         1.786093
 H         1.202555         0.020507         1.327179
 H        -1.500023         1.714014        -0.612464
 H        -2.078614         0.006130        -0.786622
 H        -0.782595         2.512328         1.420529
 H        -0.957181         1.605465         2.934112
 H        -3.752352         1.015090         3.067045
 H        -4.623461         1.419612         1.363538
 H        -3.245089        -2.398785         1.956376
 H        -3.268537        -1.733764         0.317703
 H        -1.674155        -0.674417         2.828006
