19
Iteration:  1788
 O         0.486560        -0.307598         0.452375
 C        -0.806807         0.353616         0.917492
 C        -1.997476         0.874666         0.152458
 C        -2.436138         0.939380         1.601423
 C        -1.154431         1.506235         1.980411
 C        -3.881618         0.857409         1.947633
 O        -4.230108        -0.497141         1.423752
 C        -3.025957        -1.416911         1.332086
 C        -1.793651        -0.437986         1.687605
 H         0.741093         0.175422        -0.253870
 H        -1.846255         1.838920        -0.335900
 H        -2.533562         0.261160        -0.505107
 H        -1.135214         2.657079         1.692321
 H        -0.821966         1.430912         2.969685
 H        -4.007386         0.991286         3.025115
 H        -4.578965         1.454656         1.417455
 H        -2.932122        -2.076502         2.149920
 H        -3.144723        -1.947474         0.358246
 H        -1.355685        -0.745563         2.632852
