19
Iteration:    91
 O         0.363455        -0.251984         0.450342
 C        -0.832521         0.312787         0.880750
 C        -1.949319         0.852316        -0.049806
 C        -2.469699         0.898588         1.484023
 C        -1.132998         1.498215         1.925220
 C        -3.975556         0.851573         1.714182
 O        -4.146755        -0.525963         1.829345
 C        -2.888360        -1.318855         1.365476
 C        -1.842284        -0.418517         1.794858
 H         1.048501        -0.227145         1.208708
 H        -1.620646         1.811982        -0.532330
 H        -2.403728         0.012592        -0.761593
 H        -0.950817         2.542059         1.505579
 H        -0.879459         1.404911         2.953825
 H        -4.431627         1.350618         2.552904
 H        -4.414355         1.288342         0.763093
 H        -2.925628        -2.304667         1.949447
 H        -2.921052        -1.612172         0.289592
 H        -1.548607        -0.648323         2.826167
