19
Iteration:  2337charge 0 multiplicity 1
 O         0.327415        -0.269778         0.301546
 C        -0.805199         0.430340         0.983637
 C        -2.026983         0.852340         0.143359
 C        -2.452310         1.004853         1.642571
 C        -0.939070         1.521926         1.965254
 C        -3.936259         0.727554         1.965471
 O        -4.192124        -0.500570         1.284046
 C        -2.975301        -1.382623         1.355302
 C        -1.878149        -0.450841         1.855552
 H         1.125509        -0.112787         0.745744
 H        -1.781513         1.812258        -0.510582
 H        -2.328595         0.036460        -0.500074
 H        -0.667001         2.521406         1.909313
 H        -0.851216         1.298927         3.090972
 H        -4.128367         0.796559         3.059022
 H        -4.462169         1.414044         1.329623
 H        -3.292344        -2.158741         2.007385
 H        -2.816281        -1.734987         0.336820
 H        -1.476313        -0.702534         2.814311
