19
Iteration:  2043charge 0 multiplicity 1
 O         0.328637        -0.230781         0.276966
 C        -0.795658         0.317389         0.972486
 C        -2.019464         0.935672         0.183968
 C        -2.427140         1.013785         1.696543
 C        -0.909649         1.589833         1.969106
 C        -3.996819         0.840110         1.854577
 O        -4.224088        -0.583525         1.298630
 C        -2.940755        -1.413005         1.388273
 C        -1.872054        -0.511489         1.872272
 H         1.011074        -0.684291         1.016775
 H        -1.962758         1.874432        -0.400835
 H        -2.518339         0.149503        -0.470732
 H        -0.578906         2.436851         1.463343
 H        -0.471151         1.428458         3.043676
 H        -4.093727         0.740942         2.973281
 H        -4.651619         1.606912         1.446013
 H        -3.308451        -2.335701         1.911997
 H        -2.786844        -1.613914         0.221640
 H        -1.446036        -0.554012         2.925293
