19
Iteration:  3156charge 0 multiplicity 1
 O         0.406315        -0.233333         0.500008
 C        -0.789976         0.321195         0.897042
 C        -1.958828         0.706328        -0.070696
 C        -2.445424         0.933571         1.357792
 C        -1.256998         1.634120         1.927460
 C        -3.887869         0.838980         1.719340
 O        -4.089553        -0.525179         1.912621
 C        -3.017604        -1.349147         1.427593
 C        -1.786068        -0.474925         1.745216
 H         0.921244         0.293746        -0.084986
 H        -1.765867         1.656247        -0.729454
 H        -2.265538        -0.105701        -0.642253
 H        -1.365668         2.682625         1.712860
 H        -1.088682         1.320955         2.917475
 H        -4.185144         1.394472         2.663109
 H        -4.524881         1.196220         0.872219
 H        -3.134637        -2.231243         2.045036
 H        -3.041636        -1.582923         0.380664
 H        -1.564957        -0.528391         2.832646
