19
Iteration:  1721charge 0 multiplicity 1
 O         0.343833        -0.319725         0.473743
 C        -0.786910         0.378193         0.861081
 C        -2.017549         0.862775         0.092893
 C        -2.423309         0.892993         1.658028
 C        -1.068490         1.543462         1.960735
 C        -3.896692         0.786938         1.975274
 O        -4.249337        -0.438117         1.311043
 C        -2.945011        -1.403340         1.402369
 C        -1.768911        -0.456753         1.760194
 H         1.081458         0.235387        -0.096411
 H        -2.045113         1.886725        -0.313890
 H        -2.537185         0.242649        -0.648978
 H        -1.221555         2.720269         1.752942
 H        -0.543979         1.502730         2.958408
 H        -4.139201         0.808538         3.047916
 H        -4.432869         1.604979         1.483681
 H        -3.205312        -2.109718         2.167747
 H        -2.845229        -1.942321         0.406985
 H        -1.409619        -0.794118         2.752288
