19
Iteration:  1089charge 0 multiplicity 1
 O         0.484782        -0.089272         0.504853
 C        -0.755593         0.312137         0.946053
 C        -1.875082         0.895297         0.046160
 C        -2.421352         0.892350         1.512414
 C        -1.096442         1.498453         1.981532
 C        -3.841493         0.886221         1.975944
 O        -4.256220        -0.520715         1.612589
 C        -3.140613        -1.405851         1.156797
 C        -1.926787        -0.564883         1.674287
 H         0.600737        -1.077939         0.618573
 H        -1.750238         1.909489        -0.369113
 H        -2.259033         0.250369        -0.735508
 H        -0.966644         2.615163         1.709475
 H        -0.887905         1.333591         3.001637
 H        -3.872631         1.020778         3.040903
 H        -4.604163         1.568495         1.512792
 H        -3.155864        -2.435294         1.656272
 H        -3.108013        -1.485458         0.055334
 H        -1.629674        -0.812092         2.713580
