19
Iteration:  4841charge 0 multiplicity 1
 O         0.466231        -0.059212         0.515414
 C        -0.760268         0.275735         0.920131
 C        -2.002900         0.754684        -0.063402
 C        -2.500860         0.917243         1.428449
 C        -1.024466         1.519021         1.757318
 C        -3.937946         0.800803         1.940673
 O        -4.251303        -0.573767         1.600955
 C        -2.992650        -1.297964         1.462827
 C        -1.833797        -0.403640         1.836146
 H         0.602380        -1.094034         0.676794
 H        -1.708525         1.689321        -0.726787
 H        -2.565094         0.023676        -0.670173
 H        -0.748457         2.537137         1.451765
 H        -0.852920         1.389545         2.832310
 H        -4.196821         0.817459         3.004777
 H        -4.649528         1.518087         1.428358
 H        -3.130156        -2.191185         2.116014
 H        -2.848704        -1.583575         0.362161
 H        -1.372509        -0.475882         2.877365
