19
Iteration:  2850charge 0 multiplicity 1
 O         0.475837        -0.216809         0.516039
 C        -0.743913         0.367858         0.894046
 C        -1.908645         0.795182        -0.060778
 C        -2.434538         0.858657         1.459972
 C        -1.091920         1.601841         1.802706
 C        -3.974212         0.858806         1.814001
 O        -4.268617        -0.616870         1.866440
 C        -3.041409        -1.356950         1.288951
 C        -1.825210        -0.474991         1.813439
 H         1.059753         0.486263         0.542900
 H        -1.871067         1.790121        -0.462419
 H        -2.324748         0.167058        -0.903420
 H        -1.018994         2.602519         1.430109
 H        -0.804181         1.527319         2.939090
 H        -4.184729         1.381291         2.754794
 H        -4.607386         1.353423         1.047655
 H        -3.068722        -2.311538         1.812074
 H        -3.141530        -1.663102         0.235044
 H        -1.780059        -0.524192         2.947711
