19
Iteration:  4771
 O         0.385526        -0.146440         0.336904
 C        -0.810888         0.276140         0.925200
 C        -1.952388         0.847222        -0.042843
 C        -2.512664         1.013952         1.450376
 C        -0.980495         1.407954         1.866604
 C        -3.967578         0.792380         1.859314
 O        -4.139289        -0.609159         1.490052
 C        -2.978054        -1.379759         1.608356
 C        -1.921036        -0.333903         1.893280
 H         1.134287         0.126750         1.063957
 H        -1.587101         1.762589        -0.524800
 H        -2.523550         0.218574        -0.785424
 H        -0.766610         2.432605         1.559564
 H        -0.823589         1.282488         2.942095
 H        -4.145246         1.054131         2.960581
 H        -4.704578         1.300943         1.272791
 H        -3.048935        -2.008101         2.501193
 H        -2.922834        -1.989649         0.677999
 H        -1.742434        -0.295755         2.964177
