19
Iteration:  1292
 O         0.531184        -0.161180         0.434741
 C        -0.730682         0.253821         0.903539
 C        -1.842772         0.983683         0.075669
 C        -2.441154         0.980251         1.547555
 C        -0.983500         1.453517         2.028768
 C        -4.114231         0.804149         1.813053
 O        -4.277128        -0.662750         1.835942
 C        -3.055988        -1.290043         1.114385
 C        -1.928720        -0.442349         1.621162
 H         0.756737        -0.697982         1.202437
 H        -1.424218         1.956661        -0.306883
 H        -2.274449         0.365776        -0.741877
 H        -0.661035         2.439150         1.703907
 H        -0.601456         1.293203         3.131822
 H        -4.304866         1.143084         2.796706
 H        -4.805888         1.317566         1.146654
 H        -3.155596        -2.361192         1.355272
 H        -3.271621        -1.247910         0.006907
 H        -1.822802        -0.657687         2.729330
