19
Iteration:  3304charge 0 multiplicity 1
 O         0.396109        -0.087762         0.416350
 C        -0.838183         0.285307         0.886270
 C        -2.085006         0.771296         0.026362
 C        -2.436585         1.009294         1.480386
 C        -1.115692         1.614173         1.782665
 C        -3.879803         0.866154         1.777592
 O        -4.124846        -0.547072         1.515823
 C        -2.972712        -1.488099         1.621861
 C        -1.760841        -0.487181         1.930076
 H         0.155002        -1.110408         0.153640
 H        -1.908532         1.746559        -0.472441
 H        -2.692730        -0.013493        -0.644178
 H        -0.824399         2.609596         1.476830
 H        -0.859153         1.640248         2.882279
 H        -4.115837         1.098643         2.856188
 H        -4.498145         1.496101         1.091905
 H        -3.058812        -2.096438         2.519563
 H        -2.835671        -2.268111         0.816849
 H        -1.298048        -0.503039         2.937631
