19
Iteration:  3239
 O         0.320960        -0.278621         0.515394
 C        -0.878781         0.300025         0.894871
 C        -1.992292         0.682914        -0.036890
 C        -2.441428         0.933376         1.434363
 C        -1.261214         1.704870         1.753165
 C        -3.756680         0.837626         1.953830
 O        -4.100080        -0.569920         1.526507
 C        -2.943698        -1.345370         1.497825
 C        -1.816672        -0.365771         1.902730
 H         0.957318         0.381388        -0.030919
 H        -1.761220         1.591037        -0.560965
 H        -2.532237        -0.152630        -0.660231
 H        -1.027593         2.668873         1.247473
 H        -0.918287         1.757481         2.848946
 H        -3.739739         0.986638         3.030776
 H        -4.554788         1.459063         1.521702
 H        -3.202152        -2.135036         2.256117
 H        -2.831688        -2.008992         0.582301
 H        -1.503054        -0.661772         2.896302
