19
Iteration:  3911
 O         0.365109        -0.072231         0.417633
 C        -0.834409         0.358117         0.944038
 C        -2.072616         0.640453        -0.030444
 C        -2.414537         0.929462         1.499874
 C        -1.105205         1.656903         1.762481
 C        -3.835369         0.850672         1.826747
 O        -4.186042        -0.585232         1.558754
 C        -2.914059        -1.393744         1.609034
 C        -1.800510        -0.424882         1.858825
 H         0.416919        -0.975210         0.485779
 H        -1.866927         1.530290        -0.687349
 H        -2.474051        -0.240884        -0.580673
 H        -0.944143         2.629755         1.246610
 H        -0.986157         1.686713         2.842630
 H        -4.078397         1.094997         2.855848
 H        -4.425387         1.552136         1.179292
 H        -3.041742        -2.170052         2.426453
 H        -2.874586        -1.977142         0.638902
 H        -1.534396        -0.720323         2.921922
