19
Iteration:  3353
 O         0.507298        -0.083580         0.511096
 C        -0.782786         0.272578         0.924091
 C        -2.032293         0.710363        -0.057517
 C        -2.470381         0.923942         1.357481
 C        -1.048469         1.633600         1.685146
 C        -3.856518         0.818749         2.026984
 O        -4.244075        -0.555645         1.614974
 C        -3.098033        -1.392389         1.516724
 C        -1.906399        -0.515553         1.798488
 H         1.029597         0.497023         0.948551
 H        -1.803529         1.531851        -0.698484
 H        -2.511229        -0.048159        -0.555033
 H        -0.684275         2.493308         1.057468
 H        -0.570066         1.775416         2.636460
 H        -3.670571         1.013618         3.057700
 H        -4.662179         1.458685         1.698096
 H        -3.135081        -2.345695         2.093469
 H        -2.987130        -1.739647         0.499160
 H        -1.550481        -0.541217         2.827561
