19
Iteration:   558charge 0 multiplicity 1
 O         0.378377        -0.302583         0.344722
 C        -0.846898         0.334504         0.900045
 C        -1.972786         0.917955         0.076855
 C        -2.508490         0.952742         1.581960
 C        -1.028556         1.505520         1.941106
 C        -3.928028         0.795505         1.966300
 O        -4.159162        -0.520372         1.288930
 C        -2.984785        -1.313321         1.417091
 C        -1.828646        -0.422396         1.896153
 H         1.103084        -0.458013         1.056132
 H        -1.768049         1.915771        -0.324721
 H        -2.532551         0.290036        -0.694984
 H        -0.890682         2.567625         1.870607
 H        -0.705894         1.319102         2.965332
 H        -4.074988         0.634111         3.120371
 H        -4.771551         1.440962         1.647303
 H        -3.115592        -2.143768         2.085149
 H        -2.635996        -1.735927         0.443830
 H        -1.606325        -0.622145         2.919190
