19
Iteration:  1242charge 0 multiplicity 1
 O         0.523516        -0.116561         0.416046
 C        -0.770181         0.291175         0.981878
 C        -1.939056         0.917101         0.020146
 C        -2.433112         0.995031         1.546880
 C        -1.129422         1.429178         2.017475
 C        -3.892836         0.821691         1.952343
 O        -4.288960        -0.507577         1.533106
 C        -3.084019        -1.356310         1.272430
 C        -1.841832        -0.546827         1.674185
 H         0.817956        -0.857982         1.013831
 H        -1.766563         1.919074        -0.418189
 H        -2.404414         0.260385        -0.695767
 H        -0.723419         2.475557         1.846747
 H        -0.898336         1.184494         2.999561
 H        -4.154463         0.880063         3.064222
 H        -4.522416         1.587098         1.422890
 H        -3.157954        -2.319369         1.737828
 H        -3.054412        -1.626769         0.206749
 H        -1.470170        -0.835464         2.646033
