19
Iteration:   175
 O         0.529976        -0.065894         0.601683
 C        -0.792679         0.295965         0.861188
 C        -1.987670         0.761297        -0.046919
 C        -2.439754         0.879981         1.419964
 C        -1.168158         1.597447         1.758216
 C        -3.802102         0.895337         1.971805
 O        -4.257013        -0.491921         1.654943
 C        -3.070904        -1.459264         1.396328
 C        -1.876753        -0.543045         1.682262
 H         0.794734        -0.639189         1.218881
 H        -1.891130         1.661056        -0.542107
 H        -2.399515         0.030640        -0.701797
 H        -0.927919         2.607941         1.275635
 H        -0.762846         1.566477         2.759508
 H        -3.786403         1.036258         3.145523
 H        -4.525299         1.576887         1.506977
 H        -3.087138        -2.226387         2.157764
 H        -3.250964        -1.900659         0.418517
 H        -1.540598        -0.629214         2.738809
