19
Iteration:  1327charge 0 multiplicity 1
 O         0.394186        -0.183232         0.495903
 C        -0.864876         0.292339         0.905029
 C        -1.865446         1.049486         0.064077
 C        -2.377930         0.916531         1.429060
 C        -1.126773         1.430499         2.126525
 C        -3.857028         0.835259         1.729483
 O        -4.161876        -0.577464         1.875592
 C        -3.143188        -1.381799         1.146108
 C        -1.869690        -0.579989         1.567501
 H         1.069810         0.101703         1.222578
 H        -1.487254         2.080563        -0.252775
 H        -2.337237         0.581106        -0.782737
 H        -0.888987         2.539916         1.732267
 H        -0.926101         1.152886         3.215820
 H        -3.944361         1.176752         2.724547
 H        -4.468154         1.386378         1.056567
 H        -3.138400        -2.389800         1.459213
 H        -3.242773        -1.239825         0.012215
 H        -1.762637        -0.689459         2.661121
