19
Iteration:  1460charge 0 multiplicity 1
 O         0.335703        -0.118822         0.392033
 C        -0.844008         0.282644         0.950131
 C        -1.986597         1.004274         0.149130
 C        -2.396575         0.897605         1.648006
 C        -0.915725         1.479482         1.960106
 C        -3.961275         0.770238         1.953230
 O        -4.210817        -0.490368         1.187042
 C        -2.970701        -1.375601         1.415347
 C        -1.901570        -0.524995         1.903385
 H         0.311761        -1.197693         0.264539
 H        -1.773062         2.018771        -0.219787
 H        -2.608010         0.364980        -0.536623
 H        -0.522062         2.381438         1.379287
 H        -0.330990         1.301530         2.788173
 H        -4.166321         0.770054         3.016936
 H        -4.551844         1.491036         1.453362
 H        -3.186922        -2.144952         2.105765
 H        -2.619215        -1.740270         0.413847
 H        -1.505220        -0.607849         2.907946
