19
Iteration:   526charge 0 multiplicity 1
 O         0.410761        -0.104417         0.429496
 C        -0.851283         0.336096         0.972193
 C        -1.977534         0.873225         0.124474
 C        -2.426578         0.940659         1.632946
 C        -0.963678         1.598439         1.895931
 C        -3.902688         0.936376         1.863699
 O        -4.173972        -0.580146         1.439163
 C        -3.064200        -1.409183         1.322871
 C        -1.866800        -0.621695         1.781064
 H         0.499508        -1.055038         0.784038
 H        -1.708692         1.799867        -0.360942
 H        -2.521291         0.108085        -0.518455
 H        -0.982923         2.544794         1.524698
 H        -0.657335         1.423707         2.923335
 H        -4.085636         1.046579         2.958007
 H        -4.548372         1.512736         1.211088
 H        -3.168556        -2.268253         2.014062
 H        -3.200398        -1.860581         0.276597
 H        -1.445125        -0.851565         2.765813
