19
Iteration:  3976charge 0 multiplicity 1
 O         0.518264        -0.152251         0.657286
 C        -0.793153         0.385406         0.858173
 C        -2.077528         0.655903        -0.124781
 C        -2.448891         0.885943         1.314151
 C        -1.193896         1.660389         1.739604
 C        -3.811116         0.835275         1.864258
 O        -4.131383        -0.561603         1.830786
 C        -3.032083        -1.389678         1.453078
 C        -1.915115        -0.457696         1.777867
 H         0.671434        -0.007360        -0.237956
 H        -1.972685         1.609108        -0.744241
 H        -2.405789        -0.234432        -0.694965
 H        -1.050612         2.754482         1.460112
 H        -1.064622         1.573612         2.837857
 H        -3.785172         1.123798         2.934067
 H        -4.577297         1.435642         1.261792
 H        -2.854200        -2.171238         2.185736
 H        -3.152300        -1.749745         0.409174
 H        -1.400171        -0.534683         2.804790
