19
Iteration:   154
 O         0.480355        -0.158238         0.491851
 C        -0.804012         0.283301         0.896830
 C        -1.954713         0.832556        -0.099859
 C        -2.485132         0.910343         1.333817
 C        -1.194168         1.526532         1.890119
 C        -3.876628         0.841502         1.856436
 O        -4.220547        -0.558195         1.706935
 C        -2.982298        -1.296217         1.442709
 C        -1.819308        -0.464235         1.829067
 H         0.642591        -1.029288         1.004620
 H        -1.661008         1.661076        -0.621009
 H        -2.490055         0.128563        -0.733852
 H        -0.969260         2.612868         1.611608
 H        -1.018975         1.473215         2.941290
 H        -3.837200         1.113162         2.888871
 H        -4.629638         1.402959         1.314725
 H        -3.085920        -2.247705         1.968732
 H        -2.932491        -1.569065         0.404155
 H        -1.445607        -0.399630         2.850342
