19
Iteration:   200charge 0 multiplicity 1
 O         0.513160        -0.034746         0.502282
 C        -0.764708         0.273769         0.868231
 C        -1.901798         0.672346        -0.073443
 C        -2.418410         0.947156         1.521861
 C        -0.989549         1.590660         1.737093
 C        -3.950293         0.732741         2.006349
 O        -4.359581        -0.513462         1.587444
 C        -3.107318        -1.339970         1.418925
 C        -1.896376        -0.451276         1.796455
 H         1.056482        -0.188098         1.280130
 H        -1.836201         1.587985        -0.641411
 H        -2.349840        -0.176991        -0.687020
 H        -0.607647         2.519762         1.245879
 H        -0.586533         1.559182         2.747541
 H        -4.001758         0.770045         3.096168
 H        -4.641905         1.456213         1.562713
 H        -3.201304        -2.299668         2.020317
 H        -3.123611        -1.690404         0.400796
 H        -1.495376        -0.579405         2.829891
