19
Iteration:   348charge 0 multiplicity 1
 O         0.455304        -0.027252         0.617087
 C        -0.803302         0.296243         0.898210
 C        -1.967650         0.777683        -0.032882
 C        -2.419283         0.905350         1.471280
 C        -0.954402         1.476087         1.797689
 C        -3.856513         0.795810         1.912232
 O        -4.277116        -0.535930         1.578831
 C        -3.087403        -1.360767         1.389169
 C        -1.926424        -0.475551         1.827929
 H         0.504759        -0.273569        -0.295268
 H        -1.686348         1.865044        -0.415988
 H        -2.486310         0.006470        -0.703541
 H        -0.737211         2.484087         1.333276
 H        -0.566671         1.392521         2.781421
 H        -3.925305         0.950313         2.993723
 H        -4.567660         1.459788         1.418229
 H        -3.103136        -2.258074         2.050059
 H        -3.106254        -1.738843         0.266495
 H        -1.664740        -0.565446         2.882083
