19
Iteration:  3126charge 0 multiplicity 1
 O         0.405494        -0.295319         0.588372
 C        -0.781586         0.303210         0.927271
 C        -1.885593         0.889532        -0.009615
 C        -2.496027         1.013795         1.396221
 C        -1.060953         1.623897         1.726696
 C        -4.039421         0.775623         1.723334
 O        -4.163457        -0.705829         2.016114
 C        -2.982697        -1.315165         1.379726
 C        -1.863818        -0.393766         1.703802
 H         0.798940        -0.019710        -0.241522
 H        -1.521190         1.913172        -0.433044
 H        -2.175577         0.316164        -0.869347
 H        -1.020139         2.634152         1.273020
 H        -0.773214         1.619364         2.758798
 H        -4.527704         1.338573         2.543618
 H        -4.609509         0.950804         0.828276
 H        -2.794163        -2.243954         1.880901
 H        -3.037424        -1.554651         0.275616
 H        -1.558951        -0.426410         2.768173
