19
Iteration:  3564
 O         0.387667        -0.255207         0.455705
 C        -0.839836         0.260892         0.935307
 C        -2.044063         0.841660         0.095271
 C        -2.520013         1.033065         1.546870
 C        -0.977169         1.599826         1.835880
 C        -3.964964         0.754636         1.845601
 O        -4.136110        -0.608370         1.447923
 C        -2.926614        -1.350126         1.532038
 C        -1.843552        -0.347529         1.824401
 H         0.451145         0.101041        -0.548375
 H        -1.853510         1.731767        -0.433504
 H        -2.728421         0.059453        -0.356283
 H        -0.620909         2.435430         1.204099
 H        -0.662622         1.499224         2.906098
 H        -4.138319         0.937242         2.912551
 H        -4.628354         1.387780         1.253563
 H        -2.964174        -2.058537         2.405833
 H        -2.717785        -1.867833         0.571986
 H        -1.434229        -0.634160         2.842783
