19
Iteration:   816charge 0 multiplicity 1
 O         0.361791        -0.184188         0.491477
 C        -0.823032         0.266347         0.914990
 C        -1.932163         0.906792         0.034957
 C        -2.398632         0.933655         1.566528
 C        -1.065816         1.579184         1.992515
 C        -3.866223         0.822701         2.020770
 O        -4.235382        -0.507047         1.407368
 C        -2.997400        -1.369106         1.261808
 C        -1.842788        -0.491907         1.719600
 H         0.409547        -1.073008         0.624894
 H        -1.872158         1.879836        -0.388381
 H        -2.399977         0.057459        -0.564508
 H        -0.813746         2.617470         1.626604
 H        -0.771307         1.579380         3.007312
 H        -3.965321         0.714188         3.168025
 H        -4.663445         1.539062         1.589355
 H        -3.220049        -2.110136         2.086358
 H        -2.943257        -1.787701         0.227795
 H        -1.336860        -0.835846         2.698873
