19
Iteration:  4343
 O         0.414319        -0.332505         0.580596
 C        -0.763266         0.375118         0.853854
 C        -1.937979         0.884997        -0.053829
 C        -2.499844         0.970445         1.404226
 C        -1.162007         1.644062         1.900008
 C        -3.962738         0.770857         1.687774
 O        -4.114464        -0.625016         1.988065
 C        -2.959980        -1.384751         1.406792
 C        -1.855634        -0.374189         1.670262
 H         0.715728        -0.146748        -0.240401
 H        -1.923540         1.789732        -0.715821
 H        -2.345850         0.033626        -0.567032
 H        -0.977063         2.654257         1.529019
 H        -0.947914         1.524870         2.944738
 H        -4.527335         1.381579         2.466849
 H        -4.233702         0.991088         0.670411
 H        -2.904058        -2.301671         1.911573
 H        -3.111788        -1.569691         0.356088
 H        -1.507590        -0.395897         2.739775
