19
Iteration:  2523
 O         0.409333        -0.286108         0.372267
 C        -0.713668         0.379020         0.947750
 C        -1.917142         0.927477         0.010211
 C        -2.450263         0.911905         1.505228
 C        -1.100581         1.556779         2.042414
 C        -3.943399         0.847052         1.803194
 O        -4.235354        -0.668429         1.777576
 C        -2.986512        -1.332297         1.275735
 C        -1.918869        -0.420782         1.668844
 H         1.113502        -0.279484         1.010857
 H        -1.576643         1.985727        -0.342083
 H        -2.375302         0.151271        -0.666962
 H        -0.973880         2.581634         1.708152
 H        -0.916090         1.374840         3.159770
 H        -4.266382         1.279104         2.774325
 H        -4.369424         1.392592         0.953450
 H        -2.821877        -2.315246         1.705031
 H        -3.122861        -1.345009         0.135972
 H        -1.778912        -0.704486         2.725504
