19
Iteration:  4883charge 0 multiplicity 1
 O         0.511009        -0.046936         0.508245
 C        -0.786006         0.331970         0.863952
 C        -1.862381         0.893685        -0.087172
 C        -2.421873         0.770669         1.397095
 C        -1.127946         1.497078         1.871732
 C        -3.925001         0.805122         1.796519
 O        -4.298194        -0.555647         1.654192
 C        -3.121234        -1.350730         1.698241
 C        -1.798831        -0.572700         1.721370
 H         0.596116        -0.001969        -0.370441
 H        -1.789555         2.043619        -0.271208
 H        -2.319762         0.260984        -0.838193
 H        -0.836462         2.470126         1.451440
 H        -0.821825         1.361930         2.897649
 H        -3.985712         1.394400         2.737250
 H        -4.646230         1.371410         1.162032
 H        -3.087942        -1.996997         2.579259
 H        -3.209256        -1.958247         0.729505
 H        -1.450741        -0.523766         2.787175
