19
Iteration:  3527
 O         0.437086        -0.189274         0.573854
 C        -0.795194         0.361567         0.877994
 C        -2.008029         0.769891        -0.020176
 C        -2.417843         0.855509         1.428849
 C        -1.144545         1.614847         1.784262
 C        -3.831270         0.807898         1.943530
 O        -4.249859        -0.552725         1.658992
 C        -3.047141        -1.366536         1.431972
 C        -1.808506        -0.476613         1.707132
 H         1.037238         0.645777         0.349666
 H        -1.949390         1.714471        -0.648113
 H        -2.434830        -0.054492        -0.570253
 H        -0.903826         2.543811         1.253317
 H        -0.760429         1.593710         2.815282
 H        -3.801406         0.995471         3.043126
 H        -4.568279         1.511238         1.450398
 H        -3.005969        -2.200839         2.203207
 H        -3.309866        -1.817497         0.479357
 H        -1.338136        -0.578697         2.659881
