19
Iteration:  3952
 O         0.488921        -0.053955         0.694192
 C        -0.844769         0.235845         0.844578
 C        -1.925059         0.740180        -0.156734
 C        -2.486126         0.940615         1.371857
 C        -1.098714         1.614069         1.598312
 C        -3.928766         0.814621         2.083785
 O        -4.256060        -0.606357         1.696293
 C        -2.975716        -1.383729         1.507075
 C        -1.847976        -0.433470         1.778945
 H         0.653413        -0.469157        -0.317402
 H        -1.745916         1.609160        -0.731023
 H        -2.558325        -0.053995        -0.681643
 H        -0.776954         2.476252         0.959726
 H        -0.778767         1.777811         2.662364
 H        -3.946807         0.965886         3.184121
 H        -4.655792         1.369048         1.467781
 H        -2.883708        -2.116988         2.240941
 H        -2.980661        -1.735915         0.475574
 H        -1.435142        -0.307854         2.771563
