19
Iteration:  4287
 O         0.554406        -0.161517         0.588125
 C        -0.767569         0.297626         0.866469
 C        -1.931309         0.762096        -0.047488
 C        -2.518525         0.929867         1.365770
 C        -1.216071         1.655796         1.843371
 C        -3.923101         0.844658         1.758029
 O        -4.170217        -0.611744         1.933181
 C        -3.079337        -1.389455         1.407282
 C        -1.854865        -0.466438         1.672265
 H         0.852993         0.317558        -0.310072
 H        -1.754637         1.595540        -0.722332
 H        -2.465369        -0.040479        -0.604397
 H        -0.856899         2.655959         1.644589
 H        -0.946426         1.387161         2.851029
 H        -4.062489         1.351398         2.804484
 H        -4.530561         1.433095         1.093260
 H        -2.986461        -2.294875         2.035643
 H        -3.182015        -1.725517         0.404879
 H        -1.390506        -0.636035         2.690165
