19
Iteration:   895charge 0 multiplicity 1
 O         0.461955        -0.074758         0.372663
 C        -0.793767         0.243483         0.916757
 C        -1.949946         0.892541         0.119794
 C        -2.422814         0.870435         1.592166
 C        -1.142220         1.454289         1.946685
 C        -3.818263         0.861328         1.934352
 O        -4.282352        -0.441042         1.392539
 C        -3.028142        -1.410646         1.386525
 C        -1.859140        -0.546923         1.783843
 H         0.769113        -0.716658         1.112244
 H        -1.706827         1.929931        -0.309891
 H        -2.553766         0.373695        -0.622552
 H        -0.925892         2.469797         1.549093
 H        -0.744210         1.313128         2.917955
 H        -4.051196         0.895804         3.067382
 H        -4.453588         1.640099         1.378808
 H        -3.224859        -2.340541         1.971611
 H        -3.023065        -1.800084         0.297848
 H        -1.455203        -0.595048         2.821919
