19
Iteration:  4152
 O         0.439999        -0.035941         0.410717
 C        -0.868594         0.307113         0.840687
 C        -1.987129         0.693901        -0.025258
 C        -2.484652         0.971167         1.456505
 C        -1.022168         1.613009         1.785391
 C        -3.946443         0.807873         1.891452
 O        -4.216930        -0.632075         1.527900
 C        -2.974601        -1.377570         1.649890
 C        -1.811202        -0.378356         1.882450
 H         0.681419        -1.023166         0.688655
 H        -1.799108         1.673527        -0.558347
 H        -2.241788        -0.078517        -0.727969
 H        -0.916382         2.610075         1.276223
 H        -0.613841         1.383013         2.795757
 H        -4.123591         0.989060         3.015610
 H        -4.605110         1.382425         1.168868
 H        -2.957800        -2.125677         2.502518
 H        -2.949965        -1.948874         0.683448
 H        -1.574075        -0.524266         2.958336
