19
Iteration:  3598charge 0 multiplicity 1
 O         0.297399        -0.282578         0.334357
 C        -0.836843         0.280522         0.977791
 C        -1.913519         0.748547         0.057911
 C        -2.492858         0.947025         1.576417
 C        -1.193032         1.738603         1.886255
 C        -3.890549         0.765638         1.905752
 O        -4.084121        -0.491726         1.320688
 C        -2.944445        -1.368040         1.598536
 C        -1.765833        -0.444862         1.924838
 H         0.150787        -0.182803        -0.610987
 H        -1.737387         1.665296        -0.492365
 H        -2.520651         0.120193        -0.615298
 H        -0.928386         2.705946         1.383461
 H        -0.859677         1.854937         2.924155
 H        -4.112509         0.752183         2.981936
 H        -4.574516         1.431102         1.414660
 H        -3.187583        -2.129241         2.360322
 H        -2.596504        -1.946633         0.708910
 H        -1.266102        -0.607211         2.930416
