19
Iteration:  2315
 O         0.394462        -0.177904         0.381952
 C        -0.829892         0.232901         0.964447
 C        -2.026770         0.955179         0.099985
 C        -2.384443         0.865716         1.608649
 C        -1.087825         1.481512         1.931620
 C        -3.881790         0.821696         1.938927
 O        -4.187044        -0.500270         1.362784
 C        -3.023956        -1.332592         1.360635
 C        -1.849117        -0.542079         1.776039
 H         0.991294         0.312439         1.107854
 H        -1.609012         1.991554        -0.303213
 H        -2.662759         0.418390        -0.590693
 H        -0.980434         2.434828         1.495536
 H        -0.543617         1.574224         3.003364
 H        -4.026984         0.679274         3.032110
 H        -4.367035         1.655367         1.460834
 H        -3.125729        -2.053201         2.149631
 H        -3.111447        -1.833747         0.399447
 H        -1.547110        -0.835614         2.752254
