19
Iteration:  1468
 O         0.371414        -0.148223         0.413143
 C        -0.860185         0.354498         0.887614
 C        -2.031523         0.941948         0.192771
 C        -2.412595         0.929083         1.717396
 C        -0.913145         1.448045         1.963308
 C        -3.888529         0.807730         1.879058
 O        -4.190465        -0.464974         1.214330
 C        -2.979694        -1.441107         1.398114
 C        -1.875243        -0.448688         1.864162
 H         0.205979        -1.155963         0.054109
 H        -1.944161         1.926685        -0.338912
 H        -2.573863         0.258323        -0.453495
 H        -0.774080         2.425962         1.646723
 H        -0.513611         1.250198         2.988627
 H        -4.147184         0.630468         2.985772
 H        -4.677161         1.470657         1.408679
 H        -3.253322        -2.196259         2.129625
 H        -2.832765        -1.906596         0.377962
 H        -1.516745        -0.692312         2.922571
