19
Iteration:  4369charge 0 multiplicity 1
 O         0.398389        -0.193554         0.526494
 C        -0.791827         0.271331         0.873776
 C        -1.891591         0.814375        -0.071224
 C        -2.519054         0.966150         1.314025
 C        -1.123449         1.571901         1.841633
 C        -3.941231         0.844477         1.818307
 O        -4.185635        -0.605142         1.788462
 C        -2.968475        -1.374602         1.536423
 C        -1.823561        -0.458700         1.772231
 H         0.970751         0.479346         0.144310
 H        -1.738450         1.775118        -0.612464
 H        -2.371101         0.034439        -0.710316
 H        -1.103717         2.555441         1.324817
 H        -0.908432         1.545254         2.968625
 H        -4.059528         1.204658         2.843735
 H        -4.685012         1.381597         1.111681
 H        -3.049821        -2.289335         2.194879
 H        -2.940897        -1.786482         0.484862
 H        -1.474523        -0.461805         2.797341
