19
Iteration:  3832
 O         0.434769        -0.247694         0.526403
 C        -0.846692         0.268475         0.839735
 C        -2.030973         0.744710        -0.073180
 C        -2.505552         0.917233         1.442048
 C        -1.245428         1.609476         1.727854
 C        -3.850097         0.819938         2.012338
 O        -4.162358        -0.506692         1.514381
 C        -2.894751        -1.367036         1.525667
 C        -1.797169        -0.404009         1.883918
 H         0.928189         0.520215         0.432157
 H        -1.954131         1.713390        -0.565106
 H        -2.484501        -0.021277        -0.815258
 H        -0.994494         2.595697         1.287983
 H        -0.726608         1.558924         2.733565
 H        -3.779205         0.831303         3.089649
 H        -4.560940         1.545147         1.603907
 H        -3.042993        -2.019281         2.375476
 H        -2.905780        -1.928703         0.522004
 H        -1.458888        -0.510684         2.979552
