19
Iteration:  3062charge 0 multiplicity 1
 O         0.437123        -0.181251         0.529856
 C        -0.789518         0.329644         0.836716
 C        -1.952844         0.673878        -0.084579
 C        -2.444789         0.896096         1.417899
 C        -1.104715         1.693439         1.780516
 C        -3.870296         0.892888         1.888679
 O        -4.269888        -0.608218         1.722873
 C        -3.022392        -1.367206         1.460437
 C        -1.809941        -0.512967         1.863880
 H         0.928893         0.695406         0.308253
 H        -1.803266         1.673096        -0.496382
 H        -2.155190        -0.049956        -0.862813
 H        -1.094839         2.699488         1.260286
 H        -0.983410         1.670236         2.870620
 H        -4.012991         1.186764         2.942244
 H        -4.607405         1.422345         1.295761
 H        -3.160967        -2.286062         2.012353
 H        -3.013982        -1.654022         0.369604
 H        -1.505927        -0.718052         2.901322
