19
Iteration:  3941charge 0 multiplicity 1
 O         0.602924        -0.081297         0.586303
 C        -0.808865         0.276160         0.860422
 C        -1.980028         0.696755        -0.137997
 C        -2.496356         0.977106         1.471021
 C        -1.062137         1.622661         1.592151
 C        -4.007684         0.755516         2.034720
 O        -4.250963        -0.609260         1.659349
 C        -2.975493        -1.342501         1.542714
 C        -1.910578        -0.346670         1.830961
 H         0.546933        -0.790634        -0.140087
 H        -1.613688         1.550675        -0.631341
 H        -2.361791        -0.009114        -0.956563
 H        -0.889373         2.562415         1.012350
 H        -0.747333         1.686673         2.669489
 H        -4.096279         0.841582         3.142084
 H        -4.786760         1.451347         1.648699
 H        -2.945939        -2.151640         2.211274
 H        -2.981011        -1.849917         0.572461
 H        -1.526993        -0.618497         2.822446
