19
Iteration:   795charge 0 multiplicity 1
 O         0.553485        -0.169684         0.545443
 C        -0.752133         0.378658         0.845970
 C        -2.036411         0.890895         0.052074
 C        -2.495227         0.923638         1.601975
 C        -1.033485         1.468501         1.895794
 C        -3.918991         0.770645         1.980771
 O        -4.268452        -0.497738         1.505446
 C        -3.057800        -1.304417         1.256479
 C        -1.837795        -0.510752         1.700770
 H         0.540620        -1.181678         0.930473
 H        -1.797941         1.819642        -0.406721
 H        -2.695490         0.183793        -0.508746
 H        -0.679640         2.526237         1.713472
 H        -0.562055         1.228966         2.796537
 H        -4.097224         0.817121         3.083616
 H        -4.563815         1.536894         1.412049
 H        -3.254799        -2.229114         1.850513
 H        -3.063066        -1.469485         0.145448
 H        -1.468874        -0.666262         2.759383
