19
Iteration:  3878
 O         0.413565        -0.177319         0.282848
 C        -0.799813         0.320678         0.908429
 C        -2.106479         0.766866         0.074587
 C        -2.465747         0.975295         1.559951
 C        -1.013361         1.623731         1.752488
 C        -3.950005         0.793339         1.794533
 O        -4.194467        -0.622989         1.450997
 C        -2.930250        -1.369219         1.691471
 C        -1.815232        -0.398538         1.937450
 H         0.968103        -0.570072         1.004593
 H        -1.950109         1.715823        -0.466410
 H        -2.735053         0.049853        -0.556344
 H        -0.808921         2.603014         1.268759
 H        -0.808031         1.712084         2.822576
 H        -4.208970         0.979023         2.828431
 H        -4.513526         1.383117         1.032245
 H        -3.101377        -2.048386         2.564491
 H        -2.682553        -1.926431         0.720008
 H        -1.362443        -0.354381         3.001630
