19
Iteration:  4308
 O         0.421823        -0.154359         0.591464
 C        -0.802353         0.320198         0.924778
 C        -1.842415         0.822166        -0.086718
 C        -2.497929         0.949935         1.352027
 C        -1.011880         1.550878         1.757895
 C        -4.007252         0.735125         1.783151
 O        -4.157929        -0.654052         2.025911
 C        -3.010912        -1.327784         1.339071
 C        -1.917886        -0.387542         1.779380
 H         0.632624         0.086740        -0.226786
 H        -1.691465         1.792215        -0.534578
 H        -2.089960         0.018280        -0.819244
 H        -0.816535         2.517410         1.274967
 H        -0.770856         1.603976         2.819123
 H        -4.614265         1.358804         2.482183
 H        -4.563365         0.925157         0.841380
 H        -3.122012        -2.412683         1.556391
 H        -3.059659        -1.222593         0.267858
 H        -1.702377        -0.409061         2.893020
