19
Iteration:  2433charge 0 multiplicity 1
 O         0.503589         0.035728         0.512286
 C        -0.793574         0.317101         0.903241
 C        -1.891071         0.834302         0.071581
 C        -2.474598         0.860084         1.475356
 C        -1.054797         1.417108         1.869476
 C        -3.803099         0.823983         1.961418
 O        -4.271668        -0.498807         1.589933
 C        -3.097818        -1.368847         1.264681
 C        -1.996631        -0.537716         1.771136
 H         0.648361        -0.892848         0.358739
 H        -1.542595         1.825956        -0.216083
 H        -2.267851         0.146447        -0.633749
 H        -0.838722         2.437586         1.420108
 H        -0.791902         1.343973         2.886368
 H        -3.816768         0.765117         3.059944
 H        -4.502505         1.598586         1.620694
 H        -3.122756        -2.396065         1.719098
 H        -3.167292        -1.521929         0.144044
 H        -1.638549        -0.753203         2.803960
