19
Iteration:  1905charge 0 multiplicity 1
 O         0.420404        -0.247420         0.481232
 C        -0.783483         0.307539         0.870597
 C        -1.852823         0.998471         0.044411
 C        -2.478149         0.981892         1.482040
 C        -0.946565         1.411796         2.019461
 C        -3.972483         0.793876         1.771361
 O        -4.252566        -0.670395         1.795135
 C        -3.026069        -1.289629         1.259740
 C        -1.927398        -0.447876         1.688462
 H         1.000009         0.413001         0.438009
 H        -1.657104         2.073157        -0.369163
 H        -2.476766         0.410917        -0.654315
 H        -0.771925         2.453621         1.688023
 H        -0.703269         1.391378         3.138899
 H        -4.287748         1.348191         2.695255
 H        -4.635878         1.146611         0.895333
 H        -2.885053        -2.328512         1.720707
 H        -3.277234        -1.381349         0.211299
 H        -1.813352        -0.641460         2.789410
