19
Iteration:  1625charge 0 multiplicity 1
 O         0.402220        -0.231150         0.541079
 C        -0.798001         0.299800         0.920054
 C        -1.899056         0.989365         0.042895
 C        -2.430932         0.949839         1.446320
 C        -1.105871         1.457083         2.015152
 C        -3.913825         0.907302         1.750170
 O        -4.172629        -0.648538         1.865987
 C        -3.057193        -1.318083         1.208440
 C        -1.861567        -0.557257         1.650107
 H         0.808606         0.285482        -0.111580
 H        -1.590563         2.025534        -0.243942
 H        -2.260720         0.408033        -0.818807
 H        -0.807522         2.502975         1.742159
 H        -0.892241         1.330976         2.983847
 H        -4.416093         1.150062         2.724816
 H        -4.492963         1.316924         0.932319
 H        -3.045029        -2.303910         1.684948
 H        -3.201037        -1.364133         0.083550
 H        -1.643952        -0.737699         2.728082
