19
Iteration:  1127
 O         0.429837        -0.134514         0.413083
 C        -0.825108         0.267013         0.898047
 C        -1.917254         0.977547         0.088143
 C        -2.438779         0.937375         1.535992
 C        -0.984085         1.464659         1.957878
 C        -3.862414         0.854039         1.966434
 O        -4.267654        -0.525914         1.402973
 C        -3.047730        -1.429130         1.311342
 C        -1.916180        -0.512138         1.801749
 H         1.036309        -0.387975         1.284777
 H        -1.765656         2.005413        -0.250201
 H        -2.536307         0.368877        -0.622848
 H        -0.722992         2.487390         1.882347
 H        -0.819998         1.096395         3.095102
 H        -3.991049         0.884589         3.084645
 H        -4.545616         1.610413         1.574222
 H        -3.381391        -2.364685         1.692167
 H        -3.041930        -1.726946         0.264670
 H        -1.595364        -0.829561         2.808658
