19
Iteration:  3292
 O         0.374716        -0.147616         0.464694
 C        -0.892802         0.326115         0.869063
 C        -2.080995         0.851311         0.074452
 C        -2.442734         0.981171         1.536766
 C        -1.011411         1.605173         1.764912
 C        -3.871480         0.798947         1.756258
 O        -4.118997        -0.623465         1.490082
 C        -2.887812        -1.437600         1.685639
 C        -1.884293        -0.388607         1.886710
 H         0.267226        -0.839030        -0.241603
 H        -1.867362         1.736863        -0.561613
 H        -2.890065         0.131573        -0.445427
 H        -0.715250         2.410757         1.135636
 H        -0.487071         1.399984         2.717082
 H        -4.286365         1.182773         2.741965
 H        -4.438976         1.274967         0.939826
 H        -3.114541        -2.095785         2.519260
 H        -2.861961        -1.965923         0.697788
 H        -1.501327        -0.446722         2.939267
