19
Iteration:  4922charge 0 multiplicity 1
 O         0.397592        -0.172356         0.494536
 C        -0.834838         0.274483         0.939285
 C        -2.013304         0.677398         0.037095
 C        -2.458860         0.995625         1.445939
 C        -1.019533         1.658571         1.834328
 C        -3.859970         0.817212         1.819228
 O        -4.185081        -0.608666         1.654337
 C        -3.014465        -1.334500         1.360908
 C        -1.866656        -0.451318         1.877009
 H         0.934161         0.678581         0.161855
 H        -1.937787         1.517611        -0.598244
 H        -2.421143        -0.239819        -0.470297
 H        -0.829103         2.537303         1.178923
 H        -0.613319         1.759608         2.864843
 H        -4.088239         0.991635         2.900973
 H        -4.566337         1.400559         1.168770
 H        -3.131369        -2.263642         1.956048
 H        -2.930166        -1.649047         0.345061
 H        -1.673041        -0.605367         2.951579
