19
Iteration:  1794charge 0 multiplicity 1
 O         0.502809        -0.294042         0.498627
 C        -0.780357         0.329186         0.886266
 C        -2.019033         0.929213         0.109807
 C        -2.480147         0.873221         1.575144
 C        -1.149721         1.561286         1.999872
 C        -3.866913         0.869680         1.953743
 O        -4.233485        -0.488912         1.455003
 C        -3.020418        -1.423985         1.326470
 C        -1.814634        -0.458278         1.665679
 H         0.743242         0.241083        -0.395497
 H        -1.831986         1.898028        -0.410831
 H        -2.562194         0.056985        -0.431215
 H        -1.008793         2.512452         1.641677
 H        -0.715342         1.269890         3.042479
 H        -4.012999         0.952267         3.059646
 H        -4.493215         1.682831         1.437645
 H        -2.928957        -2.304279         2.127345
 H        -3.159845        -1.970245         0.375161
 H        -1.430224        -0.691568         2.691010
