19
Iteration:  1855
 O         0.515833        -0.222029         0.541532
 C        -0.729788         0.341378         0.926733
 C        -1.897384         0.887686         0.039552
 C        -2.487913         0.895332         1.478710
 C        -1.142770         1.537657         1.961273
 C        -3.875928         0.798263         1.885161
 O        -4.239515        -0.579447         1.730097
 C        -3.163818        -1.309033         1.189630
 C        -1.837087        -0.488913         1.728369
 H         0.731798         0.199455        -0.428646
 H        -1.691697         1.777509        -0.499499
 H        -2.279582         0.171087        -0.665843
 H        -0.876794         2.640962         1.806470
 H        -0.830210         1.249400         2.938783
 H        -3.946569         1.010322         2.948137
 H        -4.478855         1.509614         1.361427
 H        -3.296719        -2.291496         1.518569
 H        -3.348658        -1.248602         0.092605
 H        -1.452753        -0.862856         2.682530
