19
Iteration:   893charge 0 multiplicity 1
 O         0.460973        -0.076139         0.370004
 C        -0.793327         0.253273         0.919001
 C        -1.966811         0.911230         0.117404
 C        -2.411015         0.850677         1.595644
 C        -1.151472         1.456917         1.949086
 C        -3.821062         0.865130         1.921782
 O        -4.266627        -0.440466         1.386495
 C        -3.036009        -1.426946         1.393670
 C        -1.856626        -0.539403         1.788109
 H         0.747876        -0.779837         1.147361
 H        -1.725301         1.929666        -0.224284
 H        -2.594002         0.315863        -0.603935
 H        -0.857830         2.488423         1.520399
 H        -0.722236         1.309666         2.893585
 H        -4.019187         0.910663         3.044537
 H        -4.430655         1.672711         1.354556
 H        -3.234109        -2.379085         1.985086
 H        -3.054943        -1.740157         0.310940
 H        -1.450610        -0.620925         2.839816
