19
Iteration:   611charge 0 multiplicity 1
 O         0.529342        -0.226561         0.511932
 C        -0.830942         0.311112         0.845575
 C        -2.019903         0.880451         0.088855
 C        -2.478823         0.911294         1.642369
 C        -1.070014         1.466087         1.922222
 C        -3.938081         0.913613         1.960608
 O        -4.229692        -0.443817         1.418221
 C        -3.017682        -1.440750         1.352583
 C        -1.824361        -0.556874         1.743660
 H         1.034675         0.503016         0.239011
 H        -1.946302         1.877389        -0.390916
 H        -2.677461         0.110022        -0.458379
 H        -0.681472         2.531894         1.471628
 H        -0.700729         1.355733         2.947295
 H        -4.264573         1.036326         3.015778
 H        -4.504852         1.562435         1.253865
 H        -3.114138        -2.328336         1.945984
 H        -3.008828        -1.654986         0.303383
 H        -1.439100        -0.804703         2.719021
