19
Iteration:  3600
 O         0.308158        -0.280734         0.345371
 C        -0.844434         0.263162         0.975178
 C        -1.936273         0.745764         0.069916
 C        -2.468876         0.968825         1.578514
 C        -1.203899         1.725719         1.885076
 C        -3.890759         0.771234         1.909254
 O        -4.077993        -0.492272         1.321310
 C        -2.931959        -1.361076         1.598683
 C        -1.770526        -0.456535         1.914155
 H         0.162530        -0.180723        -0.710698
 H        -1.756482         1.716819        -0.489015
 H        -2.448011         0.148999        -0.598058
 H        -0.986607         2.663317         1.350004
 H        -0.918423         1.878976         2.890897
 H        -4.121676         0.734916         2.981297
 H        -4.585694         1.411666         1.390904
 H        -3.194516        -2.055596         2.346360
 H        -2.661771        -1.973602         0.701245
 H        -1.274939        -0.578389         2.898513
