19
Iteration:  4685charge 0 multiplicity 1
 O         0.393680        -0.174685         0.494788
 C        -0.851542         0.337710         0.853043
 C        -1.899236         0.844245        -0.059706
 C        -2.493294         0.984748         1.454748
 C        -1.041377         1.593575         1.718252
 C        -3.907071         0.769372         1.938157
 O        -4.202353        -0.594668         1.575591
 C        -2.974222        -1.386908         1.562878
 C        -1.877208        -0.392968         1.835047
 H         0.493752        -0.817858         1.089482
 H        -1.733602         1.864517        -0.533634
 H        -2.324406         0.086508        -0.810399
 H        -0.801552         2.500552         1.175668
 H        -0.804468         1.642317         2.773372
 H        -3.844311         0.697722         3.012198
 H        -4.752240         1.298357         1.590574
 H        -3.048111        -2.303277         2.165371
 H        -2.838304        -1.781889         0.482964
 H        -1.548956        -0.582964         2.895393
