19
Iteration:  4087charge 0 multiplicity 1
 O         0.474253        -0.142051         0.606143
 C        -0.833541         0.261377         0.945799
 C        -1.899450         0.652420        -0.113489
 C        -2.484016         1.009315         1.289692
 C        -1.087795         1.676336         1.681664
 C        -3.942159         0.825990         1.937737
 O        -4.168544        -0.655861         1.913339
 C        -3.063721        -1.403277         1.390929
 C        -1.892246        -0.386806         1.738968
 H         0.893707         0.586092        -0.079372
 H        -1.653190         1.576125        -0.748411
 H        -2.231089        -0.119047        -0.773648
 H        -0.763652         2.502913         1.006065
 H        -0.835260         1.745929         2.764712
 H        -3.877309         0.998338         2.985281
 H        -4.765688         1.324636         1.363650
 H        -2.895046        -2.248678         2.095851
 H        -3.217005        -1.597634         0.349927
 H        -1.778901        -0.347951         2.885389
