19
Iteration:  4469
 O         0.324052        -0.219910         0.292215
 C        -0.796995         0.367872         0.900688
 C        -1.925581         0.834795         0.075838
 C        -2.507470         0.938678         1.448108
 C        -0.908958         1.638326         1.880722
 C        -4.058836         0.795978         1.761645
 O        -4.192441        -0.703113         1.496789
 C        -2.934934        -1.337148         1.691935
 C        -1.833569        -0.334037         1.877861
 H         0.593260        -0.881189         0.813903
 H        -1.641085         1.591345        -0.634222
 H        -2.496521         0.004967        -0.478432
 H        -0.880543         2.645852         1.348768
 H        -0.551296         1.603770         2.967646
 H        -4.285521         1.151152         2.773092
 H        -4.924390         1.294130         1.185697
 H        -2.787334        -1.929446         2.626078
 H        -2.665113        -1.997205         0.808267
 H        -1.540528        -0.283429         2.912072
