19
Iteration:  2381
 O         0.341754        -0.202457         0.389650
 C        -0.808710         0.390933         0.971524
 C        -1.975844         1.002711         0.065176
 C        -2.428944         0.850228         1.587325
 C        -1.072731         1.550296         1.943749
 C        -3.882500         0.814875         1.943971
 O        -4.128522        -0.507455         1.381295
 C        -3.057218        -1.433061         1.354754
 C        -1.802245        -0.548920         1.821980
 H         0.651600        -0.926255         0.782419
 H        -1.985044         2.121316        -0.332230
 H        -2.477459         0.407517        -0.700735
 H        -0.858666         2.490181         1.584605
 H        -0.566098         1.491132         2.939166
 H        -4.165811         0.701473         3.013540
 H        -4.464317         1.512360         1.353221
 H        -3.159690        -2.167901         2.130353
 H        -3.070903        -1.826529         0.339680
 H        -1.641299        -0.680593         2.883662
