19
Iteration:  4262charge 0 multiplicity 1
 O         0.450193        -0.106107         0.564846
 C        -0.801601         0.371491         0.878831
 C        -1.934073         0.776479        -0.131753
 C        -2.488599         0.792588         1.413449
 C        -1.183720         1.540256         1.762680
 C        -3.846968         0.850397         1.874207
 O        -4.234636        -0.551167         1.689301
 C        -3.024239        -1.369103         1.530004
 C        -1.824028        -0.530775         1.798875
 H         0.923743         0.566921         0.162832
 H        -1.776997         1.730609        -0.625156
 H        -2.468692         0.030362        -0.800343
 H        -1.011240         2.549450         1.284995
 H        -0.767791         1.593251         2.825491
 H        -3.762340         1.162501         2.965539
 H        -4.506895         1.669378         1.508138
 H        -2.965021        -2.219092         2.299996
 H        -3.078661        -1.902952         0.546875
 H        -1.466551        -0.560950         2.854294
