19
Iteration:  1934
 O         0.400310        -0.206520         0.455496
 C        -0.791475         0.306922         0.918400
 C        -1.873866         0.916858         0.056603
 C        -2.464097         0.930970         1.470062
 C        -1.115292         1.511813         1.977548
 C        -3.923569         0.854238         1.846915
 O        -4.116805        -0.577164         1.726884
 C        -3.093875        -1.305538         1.218117
 C        -1.854274        -0.590666         1.715339
 H         1.216906         0.160261         0.899496
 H        -1.708944         1.916159        -0.238353
 H        -2.478231         0.179186        -0.542491
 H        -1.026905         2.510738         1.564415
 H        -0.880961         1.531456         3.124689
 H        -4.066731         1.313837         2.821048
 H        -4.611083         1.351226         1.171508
 H        -3.204788        -2.375417         1.504909
 H        -3.298432        -1.382460         0.123165
 H        -1.742305        -0.881888         2.819630
