19
Iteration:  1915charge 0 multiplicity 1
 O         0.417708        -0.256543         0.446293
 C        -0.795598         0.319853         0.964614
 C        -1.877068         0.986417         0.000047
 C        -2.443115         0.917781         1.510474
 C        -0.993888         1.485412         1.990597
 C        -3.992131         0.795895         1.794096
 O        -4.310112        -0.635550         1.824039
 C        -3.018475        -1.324512         1.201902
 C        -1.882998        -0.413301         1.709272
 H         1.097320         0.352645         0.618212
 H        -1.490964         1.973228        -0.437088
 H        -2.218875         0.255254        -0.765300
 H        -0.772600         2.503530         1.694795
 H        -0.767576         1.177031         3.100006
 H        -4.370714         1.242331         2.744312
 H        -4.396746         1.380760         0.910712
 H        -2.957857        -2.389983         1.604255
 H        -3.115095        -1.375431         0.149957
 H        -1.364690        -0.778845         2.613186
