19
Iteration:   556charge 0 multiplicity 1
 O         0.383819        -0.299161         0.352866
 C        -0.851549         0.337744         0.896699
 C        -1.978874         0.921085         0.088433
 C        -2.491180         0.936351         1.589447
 C        -1.030450         1.505406         1.938134
 C        -3.920281         0.778248         1.957888
 O        -4.168036        -0.517098         1.292370
 C        -2.970452        -1.306668         1.420533
 C        -1.833491        -0.423555         1.887420
 H         0.948919        -0.468563         1.016395
 H        -1.773549         1.926586        -0.315946
 H        -2.542086         0.272877        -0.686388
 H        -0.832246         2.660807         1.815451
 H        -0.758984         1.268741         2.961763
 H        -4.094856         0.661641         3.109345
 H        -4.726864         1.485168         1.583027
 H        -3.105913        -2.140841         2.069142
 H        -2.731239        -1.725191         0.444256
 H        -1.588366        -0.578832         2.918713
