19
Iteration:  3549
 O         0.412864        -0.209212         0.575261
 C        -0.882356         0.299641         0.805433
 C        -2.096274         0.868256        -0.022962
 C        -2.421749         0.958554         1.559592
 C        -1.054510         1.555003         1.754849
 C        -3.948971         0.857906         1.895938
 O        -4.150364        -0.551388         1.528188
 C        -2.928045        -1.433088         1.506474
 C        -1.780127        -0.497794         1.869011
 H         0.854224         0.237330        -0.212028
 H        -1.817133         1.894370        -0.431197
 H        -2.716036         0.297462        -0.747124
 H        -0.949960         2.604781         1.443811
 H        -0.536225         1.360735         2.715444
 H        -4.339670         1.012726         2.927998
 H        -4.647681         1.391317         1.190425
 H        -3.065231        -2.271858         2.269652
 H        -2.893533        -1.911693         0.507508
 H        -1.409426        -0.466436         2.866079
