19
Iteration:  3969
 O         0.475150        -0.119083         0.710081
 C        -0.819488         0.399321         0.839792
 C        -2.069327         0.669320        -0.098120
 C        -2.479916         0.936720         1.327582
 C        -1.163431         1.630211         1.680107
 C        -3.784542         0.809755         1.852255
 O        -4.150927        -0.555737         1.796620
 C        -3.019714        -1.414156         1.481816
 C        -1.883996        -0.459355         1.778062
 H         0.659287        -0.119629        -0.338570
 H        -1.854384         1.612814        -0.698547
 H        -2.328805        -0.125723        -0.759050
 H        -1.066084         2.629655         1.290019
 H        -0.811523         1.503375         2.701530
 H        -3.527459         0.932912         2.927517
 H        -4.617105         1.438148         1.549132
 H        -3.049281        -2.329698         2.217367
 H        -3.134714        -1.747359         0.426321
 H        -1.478864        -0.570518         2.853470
