19
Iteration:  3348
 O         0.521238        -0.077086         0.460443
 C        -0.786498         0.287817         0.929385
 C        -2.012337         0.685518        -0.064669
 C        -2.458282         0.946176         1.373352
 C        -1.036234         1.656395         1.686746
 C        -3.862512         0.827233         2.030276
 O        -4.272565        -0.580970         1.581477
 C        -3.095829        -1.415369         1.539256
 C        -1.910156        -0.484763         1.834181
 H         1.313254         0.291387         1.103058
 H        -1.814265         1.571768        -0.728921
 H        -2.529237        -0.210435        -0.623184
 H        -0.733497         2.576388         1.180236
 H        -0.592454         1.738751         2.725834
 H        -3.579794         0.965768         3.132645
 H        -4.743104         1.446595         1.736984
 H        -3.256331        -2.335030         2.108477
 H        -3.198014        -1.740711         0.458619
 H        -1.574118        -0.526657         2.887877
