19
Iteration:  2897charge 0 multiplicity 1
 O         0.537083         0.009851         0.501783
 C        -0.788146         0.347963         0.889860
 C        -1.940436         0.696822        -0.095801
 C        -2.492100         0.932258         1.400701
 C        -1.035362         1.542294         1.836942
 C        -3.915321         0.823863         1.902813
 O        -4.275587        -0.541280         1.701478
 C        -3.042367        -1.418538         1.463990
 C        -1.953541        -0.462468         1.749204
 H         0.896726        -0.738893         1.118645
 H        -1.864319         1.487409        -0.867330
 H        -2.351829        -0.111812        -0.601166
 H        -0.684603         2.589631         1.476851
 H        -0.618084         1.275286         2.799657
 H        -3.846631         1.125353         2.975821
 H        -4.662154         1.476913         1.483959
 H        -3.133074        -2.305407         2.033591
 H        -3.092044        -1.859119         0.437312
 H        -1.490502        -0.685219         2.717902
