19
Iteration:  1562
 O         0.427949        -0.222978         0.598751
 C        -0.828573         0.349012         0.838395
 C        -1.971964         0.938922        -0.053186
 C        -2.405774         0.822866         1.504546
 C        -1.124741         1.470759         1.983522
 C        -3.849115         0.854301         1.871586
 O        -4.144475        -0.562140         1.749186
 C        -3.094424        -1.274925         1.208153
 C        -1.870096        -0.571846         1.688939
 H         1.101702         0.398430         0.584102
 H        -1.969604         1.971176        -0.432372
 H        -2.328780         0.325452        -0.841090
 H        -1.064345         2.553326         1.674439
 H        -0.856632         1.307159         3.090244
 H        -3.987627         1.164283         2.903866
 H        -4.393520         1.546797         1.211017
 H        -3.234283        -2.383895         1.476522
 H        -3.115095        -1.334792         0.141958
 H        -1.616303        -0.778971         2.730224
