19
Iteration:  2745charge 0 multiplicity 1
 O         0.459596        -0.031330         0.505730
 C        -0.862412         0.234420         0.863003
 C        -1.994542         0.739274        -0.027777
 C        -2.428329         0.857740         1.458611
 C        -1.105197         1.575812         1.811487
 C        -3.868688         0.806599         1.923758
 O        -4.217371        -0.507049         1.613737
 C        -3.058591        -1.332362         1.411840
 C        -1.821062        -0.546347         1.791926
 H         1.052184        -0.153741         1.398715
 H        -1.604681         1.718930        -0.514880
 H        -2.584015         0.157912        -0.747321
 H        -0.740632         2.625986         1.557654
 H        -0.862689         1.469647         2.912703
 H        -3.976375         0.991327         3.030247
 H        -4.487174         1.518318         1.335231
 H        -3.194505        -2.366230         1.827446
 H        -2.994397        -1.434158         0.283988
 H        -1.487336        -0.649475         2.807014
