19
Iteration:  4726charge 0 multiplicity 1
 O         0.567938        -0.008362         0.339466
 C        -0.769262         0.374617         0.862084
 C        -2.019512         0.590170         0.068570
 C        -2.434001         0.832877         1.580938
 C        -1.204191         1.581714         1.780632
 C        -3.883845         0.846308         1.919642
 O        -4.232111        -0.443868         1.466877
 C        -3.088537        -1.353494         1.533716
 C        -1.826367        -0.566707         1.869130
 H         1.073121        -0.558549         1.172513
 H        -2.251735         1.442797        -0.497523
 H        -2.250649        -0.355739        -0.527907
 H        -1.001883         2.522705         1.291748
 H        -0.771712         1.491984         2.809904
 H        -4.159309         1.126296         2.991131
 H        -4.294043         1.662810         1.313098
 H        -3.289939        -2.043658         2.360765
 H        -3.001702        -1.830809         0.557528
 H        -1.382098        -0.593499         2.839528
