19
Iteration:  1286
 O         0.499786        -0.146991         0.451767
 C        -0.741745         0.258321         0.937759
 C        -1.845461         1.011405         0.056952
 C        -2.462064         0.956436         1.506571
 C        -0.981298         1.466883         2.038438
 C        -4.033312         0.793151         1.831118
 O        -4.252125        -0.649997         1.788461
 C        -3.079092        -1.264307         1.121059
 C        -1.926902        -0.516108         1.678271
 H         0.858194        -0.815262         1.038565
 H        -1.554908         1.884222        -0.538759
 H        -2.462243         0.411604        -0.612553
 H        -0.681554         2.566521         1.711589
 H        -0.682596         1.405850         3.059459
 H        -4.277219         1.228653         2.859055
 H        -4.756734         1.217349         1.090336
 H        -3.248917        -2.309849         1.371750
 H        -3.289197        -1.247511         0.045344
 H        -1.692319        -0.774707         2.696048
