19
Iteration:  4600charge 0 multiplicity 1
 O         0.559793        -0.063627         0.402143
 C        -0.733789         0.342994         0.886879
 C        -1.954803         0.717191        -0.048332
 C        -2.445586         0.933912         1.428397
 C        -1.048408         1.615837         1.834647
 C        -3.993059         0.840103         1.749818
 O        -4.263454        -0.580857         1.870852
 C        -3.128509        -1.387121         1.453122
 C        -1.869750        -0.551549         1.794047
 H         1.286633        -0.043705         1.190739
 H        -1.705071         1.584864        -0.710780
 H        -2.453754        -0.045138        -0.669486
 H        -0.865414         2.669977         1.524853
 H        -0.650594         1.340808         2.826746
 H        -4.357443         1.182650         2.750481
 H        -4.620292         1.336973         0.878105
 H        -3.122875        -2.326852         1.983941
 H        -3.168248        -1.692050         0.391267
 H        -1.663485        -0.544744         2.887894
