19
Iteration:  2694
 O         0.412741        -0.197866         0.515303
 C        -0.869154         0.276270         0.914085
 C        -1.959589         0.900724        -0.037319
 C        -2.464967         1.017215         1.518872
 C        -1.069659         1.533436         1.893734
 C        -3.928685         0.823082         1.949586
 O        -4.225631        -0.564285         1.424201
 C        -2.920873        -1.432756         1.449012
 C        -1.837448        -0.446803         1.876798
 H         0.582497        -0.038299        -0.447960
 H        -1.856193         1.831559        -0.610405
 H        -2.414716         0.140313        -0.601350
 H        -0.715882         2.468164         1.482114
 H        -0.696858         1.553586         2.854508
 H        -4.029327         0.852085         3.025066
 H        -4.683536         1.496720         1.510399
 H        -3.103410        -2.259351         2.169587
 H        -2.806949        -1.986803         0.562516
 H        -1.334304        -0.631638         2.847732
