19
Iteration:  1815
 O         0.449034        -0.131513         0.595901
 C        -0.859358         0.331842         0.900028
 C        -1.942414         0.895846        -0.018490
 C        -2.408650         0.955241         1.506942
 C        -1.009554         1.432751         1.881349
 C        -3.833961         0.766166         1.964019
 O        -4.260575        -0.524192         1.555802
 C        -3.126678        -1.345191         1.293189
 C        -1.847661        -0.525701         1.760192
 H         0.692373         0.165924        -0.208694
 H        -1.687948         1.942369        -0.278481
 H        -2.515951         0.262077        -0.795011
 H        -0.867930         2.428201         1.606493
 H        -0.811398         1.250058         3.008252
 H        -3.846054         0.958032         3.065903
 H        -4.699842         1.332074         1.495002
 H        -3.128358        -2.347038         1.822645
 H        -3.071835        -1.595322         0.247941
 H        -1.406486        -0.750574         2.767048
