19
Iteration:  4360charge 0 multiplicity 1
 O         0.403563        -0.272556         0.544097
 C        -0.806088         0.394636         0.868452
 C        -1.926592         0.788862        -0.113282
 C        -2.449905         0.978061         1.377941
 C        -1.189253         1.602821         1.880952
 C        -3.968245         0.836170         1.718719
 O        -4.150323        -0.609838         1.857199
 C        -2.985020        -1.364429         1.483334
 C        -1.798250        -0.458551         1.755166
 H         0.921855         0.298299        -0.042364
 H        -1.750173         1.753393        -0.553370
 H        -2.376910         0.075443        -0.860950
 H        -0.958254         2.702622         1.691780
 H        -0.849708         1.368176         2.950654
 H        -3.989397         1.247591         2.713113
 H        -4.852268         1.205751         1.101567
 H        -2.874127        -2.150602         2.311182
 H        -3.096326        -1.840635         0.458457
 H        -1.413471        -0.592927         2.763974
