19
Iteration:   365charge 0 multiplicity 1
 O         0.487248        -0.077909         0.496885
 C        -0.836663         0.299187         0.941787
 C        -1.953509         0.846507        -0.025875
 C        -2.463450         0.985824         1.450459
 C        -1.047735         1.508495         1.951803
 C        -3.908683         0.890386         1.815107
 O        -4.206800        -0.552223         1.657307
 C        -3.053299        -1.423794         1.420513
 C        -1.862790        -0.529791         1.720086
 H         0.433469        -0.795850        -0.008009
 H        -1.772070         1.681862        -0.620684
 H        -2.478367         0.028508        -0.451161
 H        -0.680395         2.456375         1.632023
 H        -0.787808         1.216616         3.036477
 H        -4.054261         1.208871         2.887621
 H        -4.541108         1.489512         1.100209
 H        -3.252873        -2.303874         2.048487
 H        -2.983866        -1.828524         0.458059
 H        -1.520329        -0.698405         2.767625
