19
Iteration:   141charge 0 multiplicity 1
 O         0.390846        -0.191556         0.441879
 C        -0.791949         0.355266         0.935590
 C        -1.820344         0.781108        -0.028887
 C        -2.501594         1.005241         1.445546
 C        -1.094149         1.588940         1.835600
 C        -3.974417         0.878123         1.817920
 O        -4.181221        -0.647158         1.730329
 C        -2.991609        -1.368262         1.410076
 C        -1.877355        -0.401070         1.796778
 H         0.540477        -1.090736         0.879544
 H        -1.664348         1.743968        -0.465949
 H        -2.128157         0.023175        -0.657706
 H        -0.799422         2.565291         1.421675
 H        -0.725222         1.309698         2.850531
 H        -4.210527         1.180970         2.911074
 H        -4.729899         1.357307         1.178699
 H        -2.976962        -2.265247         1.973270
 H        -2.980408        -1.619637         0.325120
 H        -1.729197        -0.567180         2.878376
