19
Iteration:  1072
 O         0.521898        -0.049557         0.565998
 C        -0.849823         0.222620         0.929306
 C        -1.869350         0.982040         0.025300
 C        -2.481720         0.950541         1.459951
 C        -1.010862         1.410591         1.916385
 C        -3.913192         0.751142         1.896245
 O        -4.294972        -0.593992         1.655509
 C        -3.093555        -1.234005         1.205604
 C        -1.884590        -0.558814         1.770936
 H         0.540103        -1.078709         0.267788
 H        -1.435044         1.941963        -0.344623
 H        -2.530033         0.531596        -0.727377
 H        -0.612427         2.278123         1.475014
 H        -0.588886         1.214922         3.009771
 H        -3.819361         0.933573         3.042087
 H        -4.537188         1.525926         1.399149
 H        -3.289636        -2.212188         1.562210
 H        -3.116644        -1.118239         0.093092
 H        -1.673404        -0.720926         2.840959
