19
Iteration:  4933
 O         0.351624        -0.249948         0.551088
 C        -0.825997         0.339406         0.973160
 C        -2.003811         0.726055         0.030707
 C        -2.450866         0.941021         1.545525
 C        -1.086685         1.617828         1.660130
 C        -3.939036         0.792432         1.870320
 O        -4.192896        -0.569240         1.639954
 C        -2.916738        -1.337546         1.320619
 C        -1.815659        -0.409857         1.871974
 H         1.080465         0.521093         0.328923
 H        -1.768745         1.567950        -0.555310
 H        -2.460734        -0.056182        -0.645489
 H        -0.949740         2.614087         1.182128
 H        -0.701053         1.637753         2.702112
 H        -4.009807         1.083164         2.953414
 H        -4.583332         1.491152         1.292275
 H        -2.992329        -2.300301         1.861261
 H        -2.902687        -1.547705         0.282109
 H        -1.458252        -0.657523         2.881533
