19
Iteration:  3294charge 0 multiplicity 1
 O         0.377086        -0.134985         0.464207
 C        -0.879116         0.325095         0.862701
 C        -2.092533         0.843937         0.076344
 C        -2.440340         0.988937         1.523336
 C        -1.037562         1.612175         1.770266
 C        -3.863702         0.805220         1.760966
 O        -4.115817        -0.613732         1.493072
 C        -2.889944        -1.457278         1.675925
 C        -1.882367        -0.406229         1.900300
 H         0.218769        -0.930917        -0.245626
 H        -1.844032         1.706062        -0.546083
 H        -2.866932         0.166290        -0.424113
 H        -0.668870         2.418108         1.140479
 H        -0.519031         1.391220         2.732039
 H        -4.229172         1.197807         2.717683
 H        -4.404586         1.300217         0.924608
 H        -3.148257        -2.068523         2.529779
 H        -2.878579        -2.001574         0.710864
 H        -1.475828        -0.450434         2.910016
