19
Iteration:  4292charge 0 multiplicity 1
 O         0.532610        -0.161647         0.585348
 C        -0.765531         0.330344         0.876020
 C        -1.902350         0.754722        -0.074817
 C        -2.498048         0.953346         1.400307
 C        -1.172012         1.622846         1.842024
 C        -3.976960         0.840778         1.727572
 O        -4.175971        -0.663074         1.971551
 C        -3.073999        -1.337953         1.383488
 C        -1.861177        -0.460113         1.707573
 H         0.764203         0.230060        -0.271637
 H        -1.681819         1.599315        -0.780416
 H        -2.499968         0.037565        -0.633346
 H        -0.830230         2.623633         1.483211
 H        -0.825651         1.401281         2.879961
 H        -3.933823         1.237985         2.709237
 H        -4.654955         1.313122         0.961013
 H        -2.853506        -2.218473         1.989959
 H        -3.321895        -1.596882         0.297046
 H        -1.532374        -0.598955         2.729329
