19
Iteration:  3724
 O         0.507497        -0.093579         0.531937
 C        -0.750392         0.295727         0.836470
 C        -2.002074         0.900649        -0.082896
 C        -2.492949         0.999557         1.366020
 C        -0.979998         1.561175         1.819497
 C        -3.969089         0.743893         1.698910
 O        -4.135898        -0.622496         2.009168
 C        -3.115443        -1.377631         1.408926
 C        -1.891908        -0.520608         1.731794
 H         0.853596        -0.737272         1.137374
 H        -1.626232         1.846052        -0.329576
 H        -2.683001         0.401336        -0.891061
 H        -0.904330         2.561265         1.486680
 H        -0.637166         1.330326         2.845217
 H        -4.282674         1.315739         2.579023
 H        -4.667088         0.974641         0.827488
 H        -3.067969        -2.399565         1.764872
 H        -3.388742        -1.295627         0.348045
 H        -1.778525        -0.486800         2.841355
