19
Iteration:  3915
 O         0.399695        -0.064067         0.430723
 C        -0.805130         0.360007         0.915576
 C        -2.064884         0.664218         0.001227
 C        -2.409954         0.916019         1.433415
 C        -1.091872         1.667962         1.754985
 C        -3.841670         0.831626         1.850197
 O        -4.213320        -0.598599         1.564609
 C        -2.945949        -1.388977         1.601185
 C        -1.820279        -0.413439         1.880493
 H         0.347353        -1.112721         0.465991
 H        -1.923396         1.477489        -0.759685
 H        -2.480964        -0.196511        -0.456603
 H        -0.909246         2.592611         1.231518
 H        -0.948003         1.714205         2.836250
 H        -4.113512         1.077687         2.909129
 H        -4.474662         1.522727         1.299190
 H        -3.006229        -2.257964         2.329501
 H        -2.882413        -1.951801         0.675449
 H        -1.497669        -0.616348         2.896902
