19
Iteration:   185charge 0 multiplicity 1
 O         0.521391        -0.035676         0.581785
 C        -0.790509         0.377430         0.884199
 C        -1.933544         0.734994        -0.066078
 C        -2.486191         0.878208         1.466816
 C        -1.026028         1.552702         1.710527
 C        -3.871763         0.867307         2.007271
 O        -4.241333        -0.543753         1.618661
 C        -3.173489        -1.388523         1.403719
 C        -1.866001        -0.543398         1.702135
 H         0.739845        -0.501898         1.380845
 H        -1.698652         1.561116        -0.694969
 H        -2.369735        -0.097722        -0.513618
 H        -1.076215         2.535722         1.144653
 H        -0.534307         1.620414         2.692091
 H        -3.815161         1.039778         3.223816
 H        -4.655466         1.509783         1.574413
 H        -3.209714        -2.170195         2.120488
 H        -3.252276        -1.911538         0.419621
 H        -1.504767        -0.766312         2.738749
