19
Iteration:   302charge 0 multiplicity 1
 O         0.349896        -0.248367         0.574274
 C        -0.816265         0.362289         0.902983
 C        -1.947777         0.761472         0.049671
 C        -2.448572         0.937763         1.508616
 C        -1.147828         1.612578         1.831728
 C        -3.771460         0.822454         1.958780
 O        -4.212319        -0.542785         1.431380
 C        -3.021477        -1.360100         1.417179
 C        -1.823673        -0.447824         1.780959
 H         0.639551         0.172771        -0.150291
 H        -1.990799         1.723658        -0.663968
 H        -2.314730        -0.125451        -0.420455
 H        -0.824158         2.551586         1.461407
 H        -0.787405         1.432948         2.896982
 H        -3.819503         0.799733         3.056524
 H        -4.481678         1.595572         1.566786
 H        -3.100357        -2.216846         2.196285
 H        -2.991836        -1.796429         0.353046
 H        -1.475210        -0.458950         2.814487
