19
Iteration:  1011
 O         0.453347        -0.220441         0.458452
 C        -0.821016         0.272250         0.946172
 C        -1.741167         0.978894         0.001340
 C        -2.491798         0.871867         1.533434
 C        -1.139439         1.438316         2.023685
 C        -3.949123         0.903828         1.826194
 O        -4.236091        -0.588649         1.743616
 C        -3.062698        -1.319861         1.205618
 C        -1.910496        -0.527500         1.766986
 H         0.868666         0.408047        -0.332138
 H        -1.424890         1.979729        -0.246669
 H        -2.248373         0.451900        -0.880799
 H        -0.890565         2.512807         1.734241
 H        -0.732228         1.251153         2.998851
 H        -4.101161         1.202581         2.847537
 H        -4.530409         1.534715         1.162312
 H        -3.021276        -2.383943         1.502540
 H        -2.990758        -1.440100         0.136404
 H        -1.687350        -0.709448         2.816319
