19
Iteration:   385
 O         0.476887        -0.161502         0.389062
 C        -0.751483         0.316166         0.886089
 C        -1.855885         0.885998         0.026303
 C        -2.462930         0.842754         1.509291
 C        -1.151796         1.501592         1.965457
 C        -3.965673         0.844743         1.754290
 O        -4.235986        -0.560331         1.728489
 C        -3.015832        -1.300898         1.389326
 C        -1.833583        -0.444340         1.771229
 H         0.469434        -1.122074         0.647609
 H        -1.726522         1.910490        -0.229412
 H        -2.438023         0.376613        -0.824652
 H        -1.016708         2.509033         1.576282
 H        -0.850032         1.323091         3.043786
 H        -4.211788         1.257737         2.692916
 H        -4.505610         1.326360         0.951350
 H        -2.982071        -2.214066         1.987879
 H        -3.177656        -1.679256         0.386757
 H        -1.630758        -0.601843         2.864845
