19
Iteration:  4488
 O         0.292641        -0.279784         0.319988
 C        -0.841033         0.356637         0.954965
 C        -1.961640         0.844841         0.003130
 C        -2.444582         1.055931         1.512971
 C        -1.053961         1.651525         1.821441
 C        -3.965904         0.737701         1.702510
 O        -4.152140        -0.650651         1.610020
 C        -2.854327        -1.396172         1.589918
 C        -1.820316        -0.335905         1.942087
 H         0.500358        -0.892606         0.936663
 H        -1.954405         1.850988        -0.445336
 H        -2.524359         0.161876        -0.719912
 H        -0.806364         2.622709         1.422739
 H        -0.816405         1.437473         2.858349
 H        -4.506098         1.184931         2.597225
 H        -4.433951         1.347546         0.837711
 H        -3.036791        -2.140249         2.342693
 H        -2.741433        -1.927691         0.641814
 H        -1.293644        -0.447666         2.920785
