19
Iteration:  1372
 O         0.528914        -0.090361         0.481104
 C        -0.720710         0.283764         0.921229
 C        -1.855839         0.930721         0.053463
 C        -2.398789         0.956025         1.517509
 C        -0.925764         1.423755         1.943151
 C        -3.898629         0.791522         1.903829
 O        -4.396635        -0.651837         1.696696
 C        -3.177121        -1.313751         1.133905
 C        -2.015187        -0.487046         1.768381
 H         1.133866         0.519381         0.988909
 H        -1.652440         1.933724        -0.410428
 H        -2.370746         0.314079        -0.700706
 H        -0.478323         2.512256         1.658428
 H        -0.673577         0.996148         2.916023
 H        -3.895426         1.106566         2.921886
 H        -4.594234         1.309020         1.330298
 H        -3.290008        -2.317223         1.499192
 H        -3.236100        -1.191544         0.011693
 H        -1.826491        -1.045869         2.646841
