19
Iteration:  2620charge 0 multiplicity 1
 O         0.384949        -0.153565         0.421540
 C        -0.853647         0.325100         0.945023
 C        -1.982771         0.850719         0.022480
 C        -2.403644         0.904135         1.488848
 C        -1.080245         1.547199         1.880866
 C        -3.834977         0.811396         1.918504
 O        -4.216234        -0.517565         1.470845
 C        -3.041227        -1.388825         1.438363
 C        -1.861710        -0.549075         1.815240
 H         1.001548         0.511935         0.996164
 H        -1.447898         1.653467        -0.477276
 H        -2.518337         0.123735        -0.588337
 H        -0.792060         2.544067         1.450866
 H        -0.849985         1.393704         3.033794
 H        -3.804507         0.864803         3.043253
 H        -4.585705         1.533960         1.576113
 H        -3.227601        -2.342229         1.909529
 H        -2.889089        -1.731915         0.366090
 H        -1.559566        -0.538082         2.890637
