19
Iteration:  3798
 O         0.466439        -0.122733         0.633614
 C        -0.800694         0.317708         0.855270
 C        -1.971787         0.738914        -0.046317
 C        -2.517227         0.948613         1.496201
 C        -0.998041         1.625559         1.677303
 C        -4.002020         0.804701         1.904909
 O        -4.210812        -0.592274         1.775012
 C        -3.023839        -1.362956         1.381758
 C        -1.834584        -0.486343         1.792107
 H         0.574832         0.175269        -0.407671
 H        -1.826489         1.633600        -0.696304
 H        -2.278783        -0.147723        -0.639783
 H        -0.772943         2.573204         1.137106
 H        -0.448674         1.512576         2.683682
 H        -4.179934         1.176571         2.895507
 H        -4.586296         1.438272         1.248627
 H        -3.036576        -2.200909         2.036984
 H        -3.125849        -1.800779         0.319669
 H        -1.299984        -0.669532         2.768066
