19
Iteration:  1257charge 0 multiplicity 1
 O         0.391787        -0.088598         0.487802
 C        -0.817275         0.309239         0.881581
 C        -1.862715         0.921018         0.063388
 C        -2.456316         0.795362         1.512687
 C        -1.122232         1.466714         2.064450
 C        -3.870764         0.916423         1.903842
 O        -4.207478        -0.487973         1.638666
 C        -2.987723        -1.373549         1.148185
 C        -1.873719        -0.588133         1.675657
 H         0.647760        -0.842088         0.872541
 H        -1.650187         1.862847        -0.413066
 H        -2.424150         0.255831        -0.686593
 H        -1.040058         2.439019         1.770147
 H        -0.826985         1.281668         3.126691
 H        -3.890293         1.229547         2.967082
 H        -4.535663         1.530383         1.267354
 H        -3.217143        -2.276483         1.816112
 H        -3.168145        -1.522004         0.089849
 H        -1.619958        -0.807840         2.767679
