19
Iteration:  1750charge 0 multiplicity 1
 O         0.262210        -0.223943         0.398257
 C        -0.834212         0.269312         0.969348
 C        -1.995556         0.864459         0.143867
 C        -2.467744         1.094209         1.623553
 C        -0.917587         1.455666         1.886119
 C        -3.869140         0.805361         1.945533
 O        -4.189434        -0.542953         1.271189
 C        -2.870798        -1.401439         1.370960
 C        -1.933677        -0.444403         1.910012
 H         0.840428         0.497530         0.019930
 H        -1.721229         1.873362        -0.209807
 H        -2.678219         0.293255        -0.575761
 H        -0.766282         2.375570         1.489396
 H        -0.567804         1.330129         2.959869
 H        -4.052373         0.768095         3.036510
 H        -4.660477         1.455103         1.463003
 H        -3.263425        -2.209811         2.116380
 H        -2.637608        -1.886437         0.419041
 H        -1.663182        -0.661439         2.968806
