19
Iteration:  2702
 O         0.434438        -0.206798         0.526613
 C        -0.829393         0.323496         0.906076
 C        -1.968697         0.815042        -0.057546
 C        -2.414103         1.036735         1.505811
 C        -1.036279         1.552669         1.912357
 C        -3.927879         0.748446         1.956281
 O        -4.274310        -0.566395         1.443755
 C        -3.003210        -1.386056         1.471183
 C        -1.814955        -0.456058         1.825529
 H         0.706816         0.364282        -0.314489
 H        -2.006313         1.902655        -0.452489
 H        -2.381093         0.087549        -0.764931
 H        -0.780066         2.522041         1.402492
 H        -0.726235         1.498973         2.932115
 H        -3.977475         0.820353         3.055179
 H        -4.694182         1.373334         1.463594
 H        -3.152476        -2.149687         2.257878
 H        -2.851477        -1.738168         0.444009
 H        -1.433525        -0.640067         2.816103
