19
Iteration:  3499charge 0 multiplicity 1
 O         0.543995        -0.099205         0.470229
 C        -0.802321         0.281733         0.905723
 C        -1.828676         0.701243        -0.143597
 C        -2.517539         0.932252         1.344740
 C        -1.158980         1.524467         1.770017
 C        -3.867258         0.849031         2.019305
 O        -4.252717        -0.580691         1.809422
 C        -3.040624        -1.361663         1.347672
 C        -2.007831        -0.421018         1.830012
 H         1.095300         0.629963         0.801436
 H        -1.584855         1.620530        -0.677356
 H        -2.249595        -0.225928        -0.674173
 H        -0.753478         2.378738         1.217902
 H        -0.925537         1.384810         2.854228
 H        -3.762096         1.019118         3.123798
 H        -4.749468         1.394751         1.687682
 H        -3.052660        -2.388190         1.759303
 H        -3.102111        -1.296709         0.254184
 H        -1.567939        -0.428799         2.895490
