19
Iteration:  1813
 O         0.446864        -0.142717         0.596304
 C        -0.847471         0.334587         0.895013
 C        -1.959778         0.903007        -0.029939
 C        -2.390880         0.948933         1.506760
 C        -1.020542         1.442810         1.903912
 C        -3.842777         0.768373         1.967656
 O        -4.258458        -0.517443         1.549245
 C        -3.114491        -1.357279         1.303599
 C        -1.849180        -0.544078         1.755221
 H         0.769268         0.162899        -0.300661
 H        -1.786719         1.936591        -0.312135
 H        -2.503993         0.304099        -0.798720
 H        -0.825839         2.514549         1.628869
 H        -0.822388         1.300154         3.000898
 H        -3.884717         0.952882         3.058691
 H        -4.662745         1.336360         1.487624
 H        -3.187225        -2.274683         1.841406
 H        -3.036557        -1.589216         0.268217
 H        -1.439296        -0.753096         2.775928
