19
Iteration:   278charge 0 multiplicity 1
 O         0.393956        -0.337939         0.460881
 C        -0.841612         0.256608         0.933242
 C        -2.041713         0.919985         0.026877
 C        -2.536912         1.014938         1.521383
 C        -0.929745         1.570034         1.819304
 C        -3.995628         0.743871         1.860150
 O        -4.131457        -0.550018         1.463453
 C        -2.924430        -1.368432         1.475548
 C        -1.889246        -0.406371         1.894593
 H         0.930599         0.631857         0.199709
 H        -1.629438         1.903737        -0.354424
 H        -2.543461         0.384927        -0.758413
 H        -0.586492         2.535627         1.522690
 H        -0.602281         1.374923         2.908956
 H        -4.300226         0.951207         2.974650
 H        -4.680588         1.367226         1.185814
 H        -3.116985        -2.153461         2.311576
 H        -2.849457        -1.846900         0.489383
 H        -1.579234        -0.434434         2.954326
