19
Iteration:  2122charge 0 multiplicity 1
 O         0.482633         0.036651         0.465518
 C        -0.810901         0.213257         0.895388
 C        -1.847891         0.856005         0.003957
 C        -2.443348         0.893607         1.547206
 C        -0.986286         1.433659         1.854714
 C        -3.913103         0.815895         2.057609
 O        -4.338499        -0.489220         1.545659
 C        -3.090227        -1.376446         1.269495
 C        -1.933296        -0.596119         1.747519
 H         0.975061        -0.146509         1.302088
 H        -1.512442         1.900196        -0.333237
 H        -2.298109         0.241951        -0.713077
 H        -0.631163         2.386654         1.339574
 H        -0.679104         1.555230         2.931538
 H        -3.992902         1.125668         3.142560
 H        -4.523317         1.566006         1.492691
 H        -3.473666        -2.305069         1.847719
 H        -3.183212        -1.770061         0.198526
 H        -1.359401        -0.902301         2.696869
