19
Iteration:  3955
 O         0.461302        -0.059131         0.701578
 C        -0.853813         0.259593         0.845620
 C        -1.923938         0.730278        -0.143786
 C        -2.491132         0.941173         1.355439
 C        -1.115048         1.605536         1.610098
 C        -3.888341         0.812391         2.053491
 O        -4.246105        -0.601692         1.711744
 C        -2.984383        -1.393483         1.506904
 C        -1.811700        -0.434098         1.753664
 H         0.694348        -0.372434        -0.207257
 H        -1.825115         1.682963        -0.772370
 H        -2.554395        -0.036400        -0.604330
 H        -0.807974         2.473629         0.967814
 H        -0.730355         1.726209         2.631096
 H        -3.857994         1.060730         3.116756
 H        -4.696145         1.401899         1.518092
 H        -3.027769        -2.262047         2.235372
 H        -2.981120        -1.769659         0.448183
 H        -1.503768        -0.302193         2.888890
