19
Iteration:  3815
 O         0.479256        -0.186210         0.616606
 C        -0.847461         0.338548         0.876510
 C        -2.121007         0.682165        -0.034212
 C        -2.410281         0.946369         1.475214
 C        -1.089123         1.656805         1.720818
 C        -3.816819         0.844236         1.932130
 O        -4.208844        -0.566785         1.623796
 C        -3.015717        -1.397008         1.457360
 C        -1.800132        -0.446473         1.741545
 H         1.084895         0.301384        -0.002042
 H        -2.060692         1.638968        -0.600600
 H        -2.731845        -0.127258        -0.359380
 H        -1.062598         2.610946         1.155221
 H        -0.869765         1.640590         2.763347
 H        -3.922149         0.975222         3.053112
 H        -4.606416         1.389289         1.365944
 H        -3.079467        -2.293910         2.139331
 H        -2.987474        -1.695647         0.437191
 H        -1.547692        -0.604174         2.775484
