19
Iteration:  1550charge 0 multiplicity 1
 O         0.479414        -0.184299         0.591667
 C        -0.772342         0.365314         0.870414
 C        -1.940198         0.837363        -0.009701
 C        -2.465980         0.884726         1.526271
 C        -1.121067         1.446933         1.921001
 C        -3.858577         0.878931         1.970713
 O        -4.286108        -0.535277         1.692053
 C        -3.065624        -1.326632         1.179365
 C        -1.837615        -0.536363         1.642904
 H         1.137103         0.642895         0.295042
 H        -1.738982         1.823511        -0.437389
 H        -2.441513         0.097143        -0.621027
 H        -0.763872         2.522951         1.868261
 H        -0.785510         0.994188         2.885044
 H        -4.076641         1.197648         3.017745
 H        -4.523429         1.391435         1.296034
 H        -3.101484        -2.278811         1.765125
 H        -3.179465        -1.433298         0.111650
 H        -1.551822        -0.766539         2.674562
