19
Iteration:  1280charge 0 multiplicity 1
 O         0.462760        -0.134001         0.466416
 C        -0.783232         0.300634         0.973334
 C        -1.846796         1.003627         0.045361
 C        -2.466552         0.946273         1.484014
 C        -1.005199         1.485161         2.013951
 C        -3.942458         0.790846         1.846551
 O        -4.221571        -0.627828         1.753530
 C        -3.136631        -1.269943         1.128156
 C        -1.909372        -0.554161         1.706752
 H         0.984284        -0.964337         0.910745
 H        -1.655084         1.942560        -0.496628
 H        -2.510686         0.355276        -0.571088
 H        -0.763460         2.431300         1.669016
 H        -0.777149         1.296275         3.113309
 H        -4.241330         1.172028         2.814915
 H        -4.552650         1.237076         1.041650
 H        -3.161245        -2.341462         1.470787
 H        -3.173606        -1.167091         0.021321
 H        -1.591154        -0.913001         2.735658
