19
Iteration:  1764charge 0 multiplicity 1
 O         0.288400        -0.251269         0.393160
 C        -0.913484         0.295971         0.978985
 C        -1.941433         0.938577         0.108708
 C        -2.417242         0.887942         1.577147
 C        -0.961186         1.536887         1.960701
 C        -3.926649         0.775623         1.924083
 O        -4.206232        -0.498988         1.310313
 C        -2.978297        -1.436179         1.406824
 C        -1.833847        -0.415832         1.897313
 H         0.674018         0.586329        -0.040885
 H        -1.663254         1.794556        -0.522257
 H        -2.402592         0.194029        -0.544403
 H        -0.599917         2.506391         1.541774
 H        -0.426105         1.393118         2.923733
 H        -4.048766         0.734759         3.009618
 H        -4.548318         1.558932         1.484679
 H        -2.980202        -2.368157         2.003394
 H        -2.821121        -1.656751         0.307773
 H        -1.508920        -0.454925         2.931769
