19
Iteration:  1233charge 0 multiplicity 1
 O         0.520207        -0.111477         0.416926
 C        -0.742014         0.315809         0.885672
 C        -1.938883         0.916615         0.111328
 C        -2.481482         0.965683         1.544518
 C        -0.998359         1.456528         2.005308
 C        -3.883237         0.764394         1.955848
 O        -4.297910        -0.561148         1.456547
 C        -3.133366        -1.324952         1.283141
 C        -1.895982        -0.492078         1.728617
 H         0.879768        -0.756500         1.110608
 H        -1.695473         1.877596        -0.331811
 H        -2.329399         0.263944        -0.691833
 H        -0.567621         2.394546         1.711648
 H        -0.872782         1.163491         2.985210
 H        -3.901676         0.809300         3.110881
 H        -4.643839         1.454652         1.485107
 H        -3.318862        -2.181715         2.004796
 H        -3.228473        -1.550731         0.238052
 H        -1.665415        -0.645104         2.817513
