19
Iteration:  1241
 O         0.528201        -0.119636         0.416008
 C        -0.764453         0.291817         0.978675
 C        -1.943552         0.914045         0.027298
 C        -2.435875         1.001071         1.550549
 C        -1.124741         1.429530         2.010328
 C        -3.891062         0.815962         1.953235
 O        -4.291793        -0.514075         1.525555
 C        -3.089227        -1.353512         1.278348
 C        -1.844145        -0.542455         1.677226
 H         0.795618        -0.802224         0.990461
 H        -1.765128         1.923520        -0.418171
 H        -2.382582         0.273334        -0.709760
 H        -0.681923         2.485926         1.842385
 H        -0.895548         1.168978         3.036394
 H        -4.141143         0.860769         3.050330
 H        -4.518579         1.568176         1.433123
 H        -3.180920        -2.296483         1.750654
 H        -3.081504        -1.615460         0.196079
 H        -1.480938        -0.812079         2.649865
