19
Iteration:  1900
 O         0.413916        -0.253558         0.500852
 C        -0.776622         0.310433         0.858465
 C        -1.856118         1.012656         0.080478
 C        -2.482677         1.029893         1.477778
 C        -0.973150         1.411813         2.005113
 C        -3.968547         0.807722         1.743645
 O        -4.194420        -0.668806         1.791459
 C        -3.070704        -1.310081         1.277183
 C        -1.927501        -0.495539         1.681378
 H         1.088511         0.566093         0.300210
 H        -1.743058         1.974515        -0.329034
 H        -2.510121         0.511349        -0.669510
 H        -0.629533         2.403471         1.668794
 H        -0.658365         1.277851         3.066708
 H        -4.270851         1.217064         2.701266
 H        -4.682697         1.074305         0.995057
 H        -3.015787        -2.263977         1.754683
 H        -3.150780        -1.415873         0.159693
 H        -1.941181        -0.516068         2.795891
