19
Iteration:  4979
 O         0.295243        -0.303574         0.621649
 C        -0.791907         0.435836         0.909894
 C        -1.928495         0.828974        -0.050606
 C        -2.516838         1.047925         1.303784
 C        -1.094429         1.580977         1.821680
 C        -3.859943         0.771051         1.984166
 O        -4.173476        -0.631143         1.545021
 C        -2.921962        -1.426867         1.529546
 C        -1.858288        -0.362483         1.717276
 H         0.863759        -0.003835        -0.177738
 H        -1.900919         1.761870        -0.627396
 H        -2.420554         0.094883        -0.670809
 H        -0.735747         2.598791         1.473861
 H        -0.793379         1.467719         2.869403
 H        -3.791302         0.873780         3.118906
 H        -4.648966         1.437581         1.579722
 H        -2.918049        -2.123238         2.360692
 H        -2.888822        -2.038959         0.640770
 H        -1.723071        -0.336841         2.777961
