19
Iteration:   478charge 0 multiplicity 1
 O         0.503436        -0.067775         0.628577
 C        -0.766680         0.354914         0.937711
 C        -1.824787         0.813730        -0.066690
 C        -2.489705         0.958511         1.449556
 C        -1.071716         1.473372         1.893603
 C        -3.860731         0.872945         1.956401
 O        -4.213045        -0.532233         1.705827
 C        -3.177150        -1.460703         1.259248
 C        -1.953572        -0.549554         1.681973
 H         0.748490        -0.066764        -0.444214
 H        -1.678203         1.879761        -0.446273
 H        -2.282541         0.097159        -0.759653
 H        -0.658676         2.454280         1.428881
 H        -0.875107         1.185316         2.921933
 H        -3.938875         1.087560         3.120859
 H        -4.611147         1.424882         1.295743
 H        -3.372946        -2.340738         1.869535
 H        -3.257208        -1.776806         0.222037
 H        -1.652190        -0.614069         2.712569
