19
Iteration:  2550
 O         0.408145        -0.064988         0.511232
 C        -0.803849         0.255518         0.944995
 C        -1.891755         0.882657         0.011387
 C        -2.481298         0.936411         1.452919
 C        -1.066076         1.482516         1.908792
 C        -3.948135         0.848978         1.902997
 O        -4.155134        -0.585893         1.716112
 C        -3.043572        -1.328119         1.265515
 C        -1.854920        -0.519001         1.701219
 H         0.575756        -0.990187         0.668695
 H        -1.562201         1.833910        -0.265916
 H        -2.375752         0.200176        -0.669823
 H        -0.994665         2.503006         1.473168
 H        -0.684154         1.362154         2.877609
 H        -4.204965         1.222436         2.891738
 H        -4.525296         1.410415         1.137733
 H        -3.108261        -2.387059         1.636072
 H        -3.083111        -1.442448         0.194972
 H        -1.674660        -0.715205         2.770693
