19
Iteration:   904charge 0 multiplicity 1
 O         0.441205        -0.076760         0.391947
 C        -0.812920         0.249374         0.909384
 C        -1.879069         0.839754         0.068749
 C        -2.458607         0.945280         1.546573
 C        -1.034529         1.457297         1.975361
 C        -3.890849         0.809592         1.996787
 O        -4.302859        -0.467679         1.433438
 C        -3.045079        -1.332314         1.313655
 C        -1.861001        -0.559600         1.764392
 H         1.137274        -0.533917         1.003055
 H        -1.612795         1.778095        -0.428026
 H        -2.405524         0.204276        -0.704009
 H        -0.998119         2.568336         1.640286
 H        -0.849922         1.346009         3.001410
 H        -4.045261         0.864851         3.129552
 H        -4.601141         1.597201         1.512074
 H        -3.243913        -2.079771         2.155305
 H        -2.876842        -1.848195         0.329965
 H        -1.602516        -0.806943         2.843318
