19
Iteration:  1512charge 0 multiplicity 1
 O         0.460160        -0.108377         0.480426
 C        -0.766448         0.306219         0.948214
 C        -1.859873         0.886784         0.075477
 C        -2.425692         0.904623         1.531395
 C        -1.084201         1.466527         1.887860
 C        -3.837055         0.776793         1.999904
 O        -4.291355        -0.488983         1.408833
 C        -3.128939        -1.432193         1.348536
 C        -1.924007        -0.495026         1.835793
 H         0.570017         0.188296        -0.519266
 H        -1.586230         1.918574        -0.254468
 H        -2.373145         0.421741        -0.790349
 H        -0.890517         2.469555         1.638067
 H        -0.636991         1.173615         2.874350
 H        -3.912763         0.764874         3.158005
 H        -4.374313         1.698499         1.569377
 H        -3.308518        -2.264342         2.030280
 H        -3.030215        -1.756653         0.263553
 H        -1.513352        -0.735912         2.876546
