19
Iteration:  1388
 O         0.484880        -0.097422         0.479810
 C        -0.803534         0.229140         0.958834
 C        -1.890896         0.955858         0.050294
 C        -2.455327         0.926097         1.539528
 C        -0.980761         1.411703         1.929780
 C        -3.880427         0.873182         1.993989
 O        -4.277507        -0.575395         1.583634
 C        -3.143469        -1.364715         1.161004
 C        -1.940121        -0.568009         1.693437
 H         1.226572         0.375556         1.126492
 H        -1.537459         1.936448        -0.263289
 H        -2.454755         0.360785        -0.683412
 H        -0.741595         2.369822         1.438108
 H        -0.599437         1.413257         2.982471
 H        -4.149556         0.882128         3.100034
 H        -4.524830         1.630665         1.405397
 H        -3.189503        -2.388733         1.676046
 H        -3.139338        -1.462365         0.081834
 H        -1.744242        -0.631759         2.796072
