19
Iteration:  1492
 O         0.425533        -0.171979         0.445290
 C        -0.826939         0.299315         0.942626
 C        -2.020820         0.888363         0.102939
 C        -2.414126         0.876764         1.603435
 C        -1.084544         1.513382         2.085935
 C        -3.892807         0.833029         1.955726
 O        -4.204922        -0.425417         1.311424
 C        -2.991686        -1.325211         1.396696
 C        -1.771318        -0.566971         1.700554
 H         0.292722        -0.474777        -0.390354
 H        -1.954743         1.801560        -0.507829
 H        -2.587915         0.118129        -0.512691
 H        -0.704503         2.470705         1.660124
 H        -0.773516         1.287997         3.034535
 H        -4.216670         0.847744         3.052830
 H        -4.632905         1.392415         1.371212
 H        -3.153441        -2.020948         2.174831
 H        -2.972449        -1.920864         0.424057
 H        -1.460622        -0.873661         2.728011
