19
Iteration:  2761charge 0 multiplicity 1
 O         0.486463        -0.033154         0.490316
 C        -0.796823         0.330951         0.925132
 C        -1.918055         0.766353        -0.015959
 C        -2.482337         0.946719         1.493020
 C        -1.095020         1.454049         1.818712
 C        -3.861684         0.859640         1.862604
 O        -4.265900        -0.592835         1.709810
 C        -3.021201        -1.344672         1.314114
 C        -1.881947        -0.465917         1.780914
 H         0.726155        -0.836005         0.964984
 H        -1.927303         1.688652        -0.538125
 H        -2.359358        -0.015326        -0.666980
 H        -0.913181         2.404901         1.356429
 H        -0.635768         1.547964         2.818517
 H        -3.954667         1.135370         2.907101
 H        -4.632397         1.411114         1.324583
 H        -3.063959        -2.284680         1.896871
 H        -3.083012        -1.710163         0.313546
 H        -1.666469        -0.598703         2.880699
