19
Iteration:  1470charge 0 multiplicity 1
 O         0.379369        -0.155806         0.416158
 C        -0.854874         0.360979         0.882393
 C        -2.042315         0.926490         0.196837
 C        -2.424763         0.949536         1.725386
 C        -0.913729         1.439195         1.972810
 C        -3.881700         0.809990         1.868923
 O        -4.178662        -0.464367         1.223719
 C        -2.989623        -1.443285         1.393587
 C        -1.862518        -0.441613         1.853745
 H         0.184882        -1.108198         0.024806
 H        -1.961979         1.898045        -0.328566
 H        -2.602705         0.210825        -0.453041
 H        -0.826949         2.502670         1.714644
 H        -0.603409         1.255912         2.943858
 H        -4.143649         0.629337         2.936201
 H        -4.609861         1.474169         1.436827
 H        -3.256715        -2.184068         2.098314
 H        -2.902765        -1.960488         0.382626
 H        -1.514823        -0.712892         2.873279
