19
Iteration:  3812charge 0 multiplicity 1
 O         0.485913        -0.174001         0.621721
 C        -0.848608         0.360006         0.881539
 C        -2.102557         0.686360        -0.056669
 C        -2.410537         0.978521         1.491071
 C        -1.080654         1.648755         1.714605
 C        -3.835987         0.830105         1.932896
 O        -4.213555        -0.570074         1.646537
 C        -3.029012        -1.396659         1.445024
 C        -1.790903        -0.461665         1.750845
 H         0.991122         0.214300        -0.024897
 H        -2.126962         1.589687        -0.619192
 H        -2.732763        -0.190772        -0.447648
 H        -0.899882         2.557415         1.121252
 H        -0.801258         1.682808         2.773193
 H        -4.002103         0.969039         3.002814
 H        -4.596610         1.335267         1.308211
 H        -3.094194        -2.285585         2.130219
 H        -3.071054        -1.714793         0.360958
 H        -1.507576        -0.711160         2.800350
