19
Iteration:  3293
 O         0.376009        -0.140789         0.465065
 C        -0.886150         0.326244         0.865690
 C        -2.086423         0.848407         0.076386
 C        -2.441581         0.984822         1.529854
 C        -1.024703         1.609468         1.767446
 C        -3.866576         0.801771         1.758517
 O        -4.117226        -0.618770         1.491420
 C        -2.888092        -1.447876         1.681584
 C        -1.884460        -0.397421         1.893289
 H         0.241888        -0.894678        -0.252925
 H        -1.854107         1.720640        -0.555154
 H        -2.887558         0.144499        -0.437091
 H        -0.691802         2.408081         1.137227
 H        -0.501058         1.391723         2.725529
 H        -4.258284         1.193180         2.730650
 H        -4.420817         1.286690         0.929895
 H        -3.133820        -2.079250         2.522535
 H        -2.872426        -1.982606         0.701175
 H        -1.489388        -0.449497         2.925540
