19
Iteration:   216
 O         0.519257        -0.142423         0.366943
 C        -0.799306         0.259365         0.946807
 C        -1.962346         0.716967         0.037965
 C        -2.498869         0.928474         1.426885
 C        -1.111227         1.535990         1.815694
 C        -3.873497         0.893151         1.955298
 O        -4.301647        -0.547229         1.527826
 C        -2.982192        -1.374678         1.425960
 C        -1.876483        -0.434158         1.892201
 H         1.234526         0.162420         1.123724
 H        -1.644151         1.648384        -0.597498
 H        -2.510858         0.052434        -0.590560
 H        -0.959556         2.515585         1.372047
 H        -0.861071         1.446291         2.907396
 H        -3.840481         0.998118         3.043663
 H        -4.623548         1.594616         1.577644
 H        -3.113775        -2.183394         2.111237
 H        -2.838458        -1.657663         0.345696
 H        -1.747408        -0.560825         2.971105
