19
Iteration:   512
 O         0.508840        -0.052474         0.434692
 C        -0.751076         0.305652         0.911467
 C        -1.943862         0.825416         0.081813
 C        -2.441756         0.875275         1.557546
 C        -1.080197         1.475437         1.918064
 C        -3.909038         0.838339         1.890291
 O        -4.268717        -0.501437         1.541671
 C        -3.066727        -1.379944         1.308612
 C        -1.878218        -0.497946         1.843265
 H         0.517854        -1.009087         0.370579
 H        -1.819577         1.848387        -0.351118
 H        -2.431269         0.159861        -0.696075
 H        -0.698022         2.483897         1.537921
 H        -0.681426         1.386928         2.896787
 H        -4.303082         1.072776         2.951525
 H        -4.477106         1.546041         1.203747
 H        -3.236312        -2.301132         1.819643
 H        -2.868605        -1.582551         0.264584
 H        -1.658374        -0.756193         2.849564
