19
Iteration:  3438
 O         0.416108        -0.138808         0.420032
 C        -0.809966         0.333081         0.907138
 C        -1.920951         0.871179        -0.038789
 C        -2.476341         0.959482         1.390336
 C        -1.089822         1.546576         1.861557
 C        -3.970337         0.752678         1.662799
 O        -4.191466        -0.598911         1.920589
 C        -3.010415        -1.332820         1.476238
 C        -1.791529        -0.432784         1.817728
 H         0.446770        -1.170606         0.715318
 H        -1.711850         1.859670        -0.586021
 H        -2.353499         0.183501        -0.730133
 H        -0.643308         2.540814         1.575567
 H        -0.876980         1.324932         2.894851
 H        -4.302541         1.361520         2.538654
 H        -4.599971         0.975823         0.748773
 H        -2.879403        -2.334462         1.902342
 H        -3.032808        -1.411875         0.360491
 H        -1.474612        -0.603284         2.817518
