19
Iteration:  4689charge 0 multiplicity 1
 O         0.388054        -0.108303         0.482032
 C        -0.879049         0.323785         0.901694
 C        -1.891944         0.795527        -0.058312
 C        -2.492447         0.999720         1.479527
 C        -1.022238         1.560222         1.680669
 C        -3.866908         0.742915         1.942362
 O        -4.211026        -0.593423         1.560017
 C        -2.974504        -1.351044         1.558286
 C        -1.907089        -0.411312         1.816612
 H         0.555261        -0.915740         1.184634
 H        -1.785507         1.804250        -0.511305
 H        -2.285634         0.084110        -0.725368
 H        -0.695894         2.484802         1.133477
 H        -0.822320         1.601609         2.765176
 H        -3.761795         0.650379         3.058042
 H        -4.722869         1.436377         1.557461
 H        -3.108412        -2.266989         2.137180
 H        -2.837573        -1.793792         0.567722
 H        -1.626897        -0.482517         2.904198
