19
Iteration:  4612
 O         0.473864        -0.075224         0.343081
 C        -0.784837         0.229643         0.955559
 C        -1.851795         0.754325         0.039632
 C        -2.508849         0.931403         1.452543
 C        -0.999042         1.576245         1.814592
 C        -3.990050         0.819675         1.705371
 O        -4.215359        -0.659134         1.849889
 C        -3.071661        -1.371964         1.413191
 C        -1.899858        -0.354939         1.851794
 H         1.045991        -0.239917         1.051749
 H        -1.780162         1.720170        -0.504040
 H        -2.398976         0.016212        -0.488103
 H        -0.730369         2.463560         1.165967
 H        -0.667960         1.736748         2.872479
 H        -4.273991         1.379654         2.649715
 H        -4.719135         1.187975         0.842246
 H        -3.256724        -2.345903         1.885375
 H        -3.073697        -1.440842         0.327283
 H        -1.673008        -0.458413         2.923368
