19
Iteration:  2816
 O         0.372550        -0.205957         0.588544
 C        -0.844380         0.287585         0.948565
 C        -1.938186         0.926682        -0.063367
 C        -2.517755         0.956672         1.371948
 C        -1.017974         1.558842         1.871510
 C        -3.982247         0.871907         1.737734
 O        -4.108265        -0.606215         1.861097
 C        -2.957586        -1.429777         1.299558
 C        -1.819965        -0.465799         1.807797
 H         0.569966        -0.096561        -0.412402
 H        -1.728067         1.883620        -0.469861
 H        -2.475143         0.161210        -0.705068
 H        -0.749285         2.564841         1.643974
 H        -0.860826         1.233039         2.960717
 H        -4.288432         1.341228         2.667675
 H        -4.634841         1.142219         0.889918
 H        -3.063311        -2.281872         1.999394
 H        -3.015348        -1.645132         0.230666
 H        -1.708120        -0.498639         2.932298
