19
Iteration:   766charge 0 multiplicity 1
 O         0.422297        -0.015640         0.493415
 C        -0.864002         0.247179         0.972861
 C        -1.847584         0.874271         0.001494
 C        -2.427106         0.964872         1.478707
 C        -1.066874         1.488010         1.978632
 C        -3.854465         0.838602         1.918397
 O        -4.265651        -0.532665         1.634941
 C        -3.100915        -1.349412         1.255274
 C        -1.857596        -0.623241         1.688499
 H         0.738266        -1.024212         0.581389
 H        -1.272773         1.734154        -0.543236
 H        -2.467491         0.449609        -0.769501
 H        -0.544416         2.440421         1.695590
 H        -0.727347         1.392796         3.082990
 H        -4.006658         1.004262         2.971902
 H        -4.565678         1.471099         1.417745
 H        -3.283979        -2.299811         1.712579
 H        -3.156416        -1.509934         0.157327
 H        -1.667991        -0.875228         2.715836
