19
Iteration:  2168charge 0 multiplicity 1
 O         0.430026        -0.195687         0.386799
 C        -0.767943         0.327232         0.947819
 C        -1.842561         0.960755        -0.012088
 C        -2.472523         0.912740         1.483001
 C        -1.169905         1.506286         2.089827
 C        -3.928485         0.850617         1.841149
 O        -4.205462        -0.537122         1.794311
 C        -3.068220        -1.355185         1.203120
 C        -1.819986        -0.579940         1.648865
 H         1.042625        -0.643965         1.074621
 H        -1.689100         1.960363        -0.397788
 H        -2.353691         0.309989        -0.739405
 H        -0.914953         2.626740         1.841221
 H        -0.887354         1.245323         3.103800
 H        -4.296217         1.188044         2.811281
 H        -4.503205         1.444665         1.077874
 H        -2.997940        -2.412433         1.638739
 H        -3.223691        -1.508941         0.151544
 H        -1.600342        -0.669319         2.721690
