19
Iteration:  3802charge 0 multiplicity 1
 O         0.470664        -0.140222         0.642651
 C        -0.789367         0.349137         0.848396
 C        -2.018763         0.721872        -0.060400
 C        -2.496392         0.994247         1.507586
 C        -1.032379         1.636436         1.692005
 C        -3.948975         0.784585         1.918749
 O        -4.209037        -0.581917         1.735740
 C        -3.039314        -1.368507         1.374814
 C        -1.815259        -0.507198         1.808477
 H         0.617924         0.207622        -0.246804
 H        -2.048230         1.545073        -0.754824
 H        -2.384371        -0.162110        -0.705699
 H        -0.612494         2.495572         1.152373
 H        -0.490154         1.648291         2.624919
 H        -4.188500         1.149838         2.944306
 H        -4.548056         1.459797         1.245348
 H        -3.052656        -2.256167         2.093598
 H        -3.189996        -1.849336         0.391438
 H        -1.271657        -0.725311         2.742767
