19
Iteration:  2091
 O         0.422205        -0.224452         0.405020
 C        -0.755573         0.371584         0.899061
 C        -2.031158         0.865744         0.014713
 C        -2.471221         0.943661         1.473361
 C        -1.049464         1.503618         2.082080
 C        -3.836364         0.738887         2.029784
 O        -4.202560        -0.446599         1.410189
 C        -3.052360        -1.372413         1.308323
 C        -1.868292        -0.504914         1.772023
 H         1.162914        -0.016666         1.045962
 H        -2.109770         1.836470        -0.565326
 H        -2.503397         0.112417        -0.563371
 H        -0.766909         2.609065         1.795846
 H        -1.061265         1.284220         3.129622
 H        -3.919840         0.943080         3.078443
 H        -4.489035         1.442209         1.452274
 H        -3.319527        -2.146619         2.136079
 H        -3.016918        -1.831954         0.337075
 H        -1.383891        -0.762402         2.744899
