19
Iteration:  3797charge 0 multiplicity 1
 O         0.467209        -0.117061         0.623510
 C        -0.808746         0.310803         0.860487
 C        -1.959614         0.740181        -0.042871
 C        -2.517947         0.934661         1.491944
 C        -0.989564         1.620509         1.675878
 C        -4.012146         0.811975         1.899050
 O        -4.212385        -0.595707         1.784773
 C        -3.019064        -1.362541         1.384115
 C        -1.838331        -0.476935         1.785550
 H         0.573460         0.134093        -0.367861
 H        -1.766767         1.666589        -0.677887
 H        -2.261082        -0.121365        -0.607060
 H        -0.825542         2.591901         1.136458
 H        -0.461699         1.484804         2.685076
 H        -4.177942         1.180861         2.909232
 H        -4.610649         1.424709         1.237610
 H        -3.035415        -2.200716         2.028795
 H        -3.100499        -1.762224         0.325386
 H        -1.334928        -0.653767         2.765906
