19
Iteration:   401
 O         0.395236        -0.217785         0.401137
 C        -0.798424         0.332570         0.952396
 C        -1.863864         0.983349         0.035533
 C        -2.438732         0.999030         1.452504
 C        -1.057102         1.588528         1.925702
 C        -3.920629         0.814316         1.733604
 O        -4.233841        -0.621103         1.786341
 C        -3.056767        -1.415242         1.333493
 C        -1.870012        -0.552248         1.808699
 H         0.768759        -0.733650         1.002406
 H        -1.630122         1.902437        -0.593605
 H        -2.174081         0.316093        -0.730661
 H        -0.757120         2.604944         1.574574
 H        -0.755627         1.513371         2.972237
 H        -4.339335         1.228752         2.752016
 H        -4.585877         1.290490         0.936186
 H        -3.224658        -2.437112         1.743163
 H        -3.016534        -1.325024         0.236183
 H        -1.470266        -0.658885         2.810521
