19
Iteration:  2118charge 0 multiplicity 1
 O         0.493370         0.009881         0.455949
 C        -0.818343         0.222892         0.874400
 C        -1.819594         0.856535         0.045021
 C        -2.466749         0.907782         1.543333
 C        -1.017162         1.445870         1.866787
 C        -3.878511         0.833553         2.053600
 O        -4.349384        -0.495549         1.521796
 C        -3.101404        -1.378912         1.272812
 C        -1.918482        -0.591752         1.754643
 H         0.968919        -0.091493         1.307303
 H        -1.672043         1.874554        -0.303753
 H        -2.376377         0.222747        -0.702530
 H        -0.761048         2.289834         1.312448
 H        -0.598995         1.493352         2.916183
 H        -3.949014         1.055106         3.147243
 H        -4.525574         1.563445         1.564238
 H        -3.277878        -2.225890         1.885975
 H        -3.136419        -1.799493         0.239106
 H        -1.404762        -0.873614         2.656107
