19
Iteration:    47
 O         0.623753         0.030028         0.517972
 C        -0.752841         0.272550         0.879869
 C        -1.777973         0.727825        -0.139220
 C        -2.478637         0.804082         1.393637
 C        -1.119582         1.513677         1.743169
 C        -3.935896         0.813224         2.015187
 O        -4.374268        -0.508607         1.757292
 C        -3.130856        -1.304801         1.421805
 C        -1.913687        -0.570323         1.737566
 H         1.155071        -0.152480         1.258558
 H        -1.675477         1.743348        -0.579202
 H        -2.380328        -0.052793        -0.844350
 H        -1.041497         2.515928         1.175549
 H        -0.679781         1.493498         2.684589
 H        -3.872624         1.104370         3.122586
 H        -4.674047         1.572933         1.572029
 H        -3.182899        -2.291630         2.030402
 H        -3.177430        -1.574026         0.335043
 H        -1.815567        -0.489654         2.817439
