19
Iteration:   540
 O         0.298962        -0.179880         0.423190
 C        -0.816889         0.293461         0.937596
 C        -2.005227         0.903484         0.130444
 C        -2.388563         0.974434         1.620895
 C        -1.031164         1.557328         1.963167
 C        -3.875446         0.774958         1.881137
 O        -4.220361        -0.497066         1.379068
 C        -2.985375        -1.416702         1.355607
 C        -1.812569        -0.478503         1.743394
 H         0.718936        -0.834389         1.141926
 H        -1.912848         1.860543        -0.392672
 H        -2.571988         0.236422        -0.431770
 H        -0.699481         2.411991         1.378908
 H        -0.511552         1.619740         2.984778
 H        -4.165566         0.878212         2.876593
 H        -4.380610         1.510130         1.275264
 H        -3.143001        -2.168597         2.202651
 H        -2.864130        -1.908005         0.344263
 H        -1.416414        -0.784973         2.786828
