19
Iteration:  4516charge 0 multiplicity 1
 O         0.381677        -0.249879         0.445102
 C        -0.822709         0.314862         0.923963
 C        -1.957722         0.723757        -0.011753
 C        -2.460606         0.981437         1.467870
 C        -1.193124         1.699022         1.765253
 C        -3.932808         0.825439         1.820282
 O        -4.146739        -0.594555         1.744122
 C        -2.933823        -1.373241         1.408363
 C        -1.792566        -0.411309         1.836135
 H         0.871030        -0.443278         1.233558
 H        -2.025822         1.687277        -0.547257
 H        -2.334119        -0.078825        -0.577636
 H        -0.889709         2.564803         1.128869
 H        -0.853355         1.705797         2.819175
 H        -4.200499         1.168159         2.807726
 H        -4.513207         1.447996         1.191099
 H        -3.128010        -2.407358         1.862361
 H        -2.876147        -1.453885         0.303124
 H        -1.355846        -0.516361         2.833408
