19
Iteration:  4761charge 0 multiplicity 1
 O         0.405242        -0.063164         0.315491
 C        -0.841454         0.216614         0.940544
 C        -1.943901         0.826863         0.043758
 C        -2.483494         1.042917         1.446644
 C        -1.029566         1.537786         1.863594
 C        -3.899539         0.818639         1.831827
 O        -4.186701        -0.571182         1.482571
 C        -3.041765        -1.447528         1.652349
 C        -1.906082        -0.478343         1.850290
 H         1.184646         0.224515         1.018226
 H        -1.639199         1.771866        -0.539016
 H        -2.346806        -0.012568        -0.595034
 H        -0.421002         2.306256         1.377798
 H        -0.632954         1.386285         2.868349
 H        -4.257893         1.074507         2.857638
 H        -4.594169         1.321404         1.156436
 H        -3.171493        -2.138233         2.502817
 H        -2.967614        -2.112175         0.716316
 H        -1.574022        -0.586530         2.908398
