19
Iteration:   560
 O         0.370829        -0.303917         0.338098
 C        -0.834675         0.326344         0.908545
 C        -1.969649         0.912029         0.061651
 C        -2.520002         0.974709         1.574120
 C        -1.029777         1.506501         1.947788
 C        -3.940320         0.810362         1.980768
 O        -4.150755        -0.522749         1.285953
 C        -2.995557        -1.322540         1.409342
 C        -1.830391        -0.421351         1.897756
 H         1.216697        -0.427874         1.069932
 H        -1.759687         1.905088        -0.338998
 H        -2.496325         0.326632        -0.665784
 H        -0.940514         2.499993         1.879222
 H        -0.641574         1.352354         2.982030
 H        -4.034080         0.618464         3.072244
 H        -4.796255         1.391234         1.708543
 H        -3.142705        -2.172906         2.129040
 H        -2.559405        -1.747007         0.444139
 H        -1.594002        -0.664586         2.954784
