19
Iteration:  1658charge 0 multiplicity 1
 O         0.477441        -0.127211         0.545098
 C        -0.735852         0.302054         0.939442
 C        -1.944943         0.833667         0.038720
 C        -2.423205         0.913257         1.494098
 C        -1.023659         1.495671         1.978442
 C        -3.885628         0.861932         1.887390
 O        -4.330887        -0.588199         1.672782
 C        -3.124841        -1.292798         1.236206
 C        -1.835903        -0.572837         1.715242
 H         0.821960         0.320715        -0.381009
 H        -1.828374         1.841950        -0.447184
 H        -2.336969         0.168678        -0.713450
 H        -0.873100         2.532629         1.575420
 H        -0.755486         1.333862         2.936834
 H        -4.156994         1.043557         2.962332
 H        -4.496041         1.482145         1.250201
 H        -3.149312        -2.323867         1.621176
 H        -3.126834        -1.455423         0.121260
 H        -1.423508        -0.708119         2.727513
