19
Iteration:  4101
 O         0.541333        -0.072919         0.668944
 C        -0.808029         0.343502         0.841733
 C        -1.898532         0.634439        -0.179435
 C        -2.552404         0.939132         1.408901
 C        -1.102792         1.571698         1.629134
 C        -3.930331         0.788489         1.993325
 O        -4.240803        -0.578874         1.832057
 C        -3.009851        -1.329454         1.443374
 C        -1.885973        -0.424346         1.773136
 H         0.737570         0.157054        -0.155672
 H        -1.720449         1.410967        -0.918532
 H        -2.401812        -0.301988        -0.584529
 H        -1.005058         2.497100         1.110830
 H        -0.592703         1.614455         2.602886
 H        -3.906940         1.214526         3.028607
 H        -4.728941         1.337286         1.515526
 H        -3.082398        -2.327705         1.878049
 H        -3.010782        -1.563448         0.353329
 H        -1.508619        -0.603556         2.849133
