19
Iteration:  2358charge 0 multiplicity 1
 O         0.257566        -0.209629         0.291974
 C        -0.888025         0.231905         0.934969
 C        -1.914625         0.859785         0.163465
 C        -2.444838         1.002260         1.612228
 C        -1.022450         1.537563         2.049657
 C        -3.927162         0.781760         1.929926
 O        -4.174149        -0.539168         1.287489
 C        -2.912145        -1.334378         1.359386
 C        -1.841768        -0.424216         1.843612
 H         1.106508        -0.553515         0.883726
 H        -1.780609         1.897767        -0.353679
 H        -2.583323         0.298607        -0.458531
 H        -0.735303         2.466631         1.659077
 H        -0.582215         1.484114         3.036012
 H        -3.887979         0.734173         3.038696
 H        -4.737012         1.345105         1.487773
 H        -3.170575        -2.097290         2.062396
 H        -2.657299        -1.674940         0.359979
 H        -1.568942        -0.489807         2.877715
