19
Iteration:  3611charge 0 multiplicity 1
 O         0.368595        -0.263121         0.421700
 C        -0.834121         0.234351         0.873072
 C        -2.076525         0.800910         0.126724
 C        -2.431956         0.984726         1.572063
 C        -1.151513         1.666895         1.857350
 C        -3.890307         0.809187         1.908907
 O        -4.079382        -0.540459         1.317155
 C        -2.914462        -1.371695         1.556443
 C        -1.780614        -0.435284         1.897339
 H         0.348991        -0.112943        -0.656351
 H        -1.853061         1.798195        -0.390893
 H        -2.454548         0.017967        -0.369633
 H        -1.129959         2.544735         1.199661
 H        -0.916860         1.708510         2.873451
 H        -4.064755         0.862332         2.986088
 H        -4.582555         1.472332         1.425298
 H        -3.041970        -1.831085         2.493750
 H        -3.079588        -2.075327         0.716778
 H        -1.558098        -0.514323         2.992560
