19
Iteration:  1119
 O         0.432927        -0.133312         0.454024
 C        -0.786299         0.301539         0.871456
 C        -1.939383         0.895182         0.051174
 C        -2.433045         0.931533         1.557928
 C        -1.032358         1.460909         2.048725
 C        -3.908430         0.869411         1.943465
 O        -4.270321        -0.509182         1.454095
 C        -3.088283        -1.352942         1.289133
 C        -1.841779        -0.549619         1.692587
 H         0.976601        -0.665105         1.198277
 H        -1.819141         1.912128        -0.331207
 H        -2.443255         0.219880        -0.702469
 H        -0.902982         2.544509         1.954707
 H        -0.727593         1.077649         3.021249
 H        -3.758614         0.848501         3.095725
 H        -4.667103         1.560261         1.584324
 H        -3.135624        -2.236581         1.942322
 H        -3.002844        -1.557135         0.179701
 H        -1.437014        -0.804950         2.662121
