19
Iteration:  1701charge 0 multiplicity 1
 O         0.397233        -0.223896         0.547092
 C        -0.819111         0.323077         0.945139
 C        -1.952446         0.916694         0.054216
 C        -2.441545         0.894350         1.531015
 C        -1.097349         1.549131         1.928875
 C        -3.796321         0.816238         1.995953
 O        -4.207335        -0.520888         1.407396
 C        -3.092969        -1.375842         1.363495
 C        -1.819152        -0.541263         1.715575
 H         0.599453         0.386652        -0.281135
 H        -1.795099         1.883102        -0.454570
 H        -2.455761         0.279661        -0.644707
 H        -0.769158         2.583882         1.449790
 H        -0.825076         1.535932         2.960678
 H        -3.811426         0.793045         3.114809
 H        -4.539828         1.487702         1.616660
 H        -3.245008        -2.157611         2.052746
 H        -3.229864        -1.867375         0.367453
 H        -1.406341        -0.716385         2.736096
