19
Iteration:  3959
 O         0.441475        -0.069342         0.709658
 C        -0.854544         0.301151         0.846235
 C        -1.942851         0.721891        -0.128760
 C        -2.497399         0.945862         1.346606
 C        -1.131402         1.602082         1.622584
 C        -3.845665         0.808311         1.990751
 O        -4.226566        -0.592255         1.733094
 C        -2.994417        -1.408238         1.509052
 C        -1.790049        -0.432024         1.751072
 H         0.751339        -0.299415        -0.184921
 H        -1.887226         1.637998        -0.734766
 H        -2.521593        -0.048869        -0.609003
 H        -0.890398         2.461392         1.026174
 H        -0.682773         1.636577         2.618195
 H        -3.744773         1.128553         3.062260
 H        -4.679074         1.408238         1.636293
 H        -3.157372        -2.334592         2.154144
 H        -3.003338        -1.801710         0.483731
 H        -1.613805        -0.383438         2.825975
