19
Iteration:  1329charge 0 multiplicity 1
 O         0.406888        -0.176996         0.501741
 C        -0.875599         0.298414         0.901435
 C        -1.853392         1.029623         0.078920
 C        -2.388889         0.918225         1.426722
 C        -1.148936         1.427849         2.120811
 C        -3.838408         0.846703         1.730021
 O        -4.157497        -0.562521         1.877551
 C        -3.136321        -1.379990         1.131797
 C        -1.883177        -0.603391         1.576861
 H         1.010874         0.081793         1.093830
 H        -1.562655         2.057510        -0.211563
 H        -2.361550         0.600939        -0.774474
 H        -0.873761         2.607605         1.742916
 H        -0.965197         1.148088         3.172238
 H        -3.955632         1.204465         2.777419
 H        -4.435157         1.422655         1.049522
 H        -3.074976        -2.418748         1.461455
 H        -3.264296        -1.302747        -0.000198
 H        -1.679023        -0.740915         2.628376
