19
Iteration:  1633charge 0 multiplicity 1
 O         0.430580        -0.212975         0.543165
 C        -0.801550         0.258232         0.962771
 C        -1.875563         0.975364         0.036529
 C        -2.451351         0.878924         1.555112
 C        -1.159789         1.466851         1.970480
 C        -3.878745         0.956813         1.779596
 O        -4.094157        -0.603615         1.814007
 C        -3.101140        -1.386958         1.184266
 C        -1.914736        -0.519746         1.652855
 H         0.686216         0.366586        -0.216761
 H        -1.784039         2.022947        -0.253529
 H        -2.378708         0.482215        -0.864007
 H        -1.068192         2.519708         1.512616
 H        -0.798877         1.415651         3.066584
 H        -4.297558         1.355458         2.722800
 H        -4.416805         1.344389         0.898246
 H        -3.074053        -2.337700         1.615451
 H        -3.253976        -1.604868         0.082516
 H        -1.463935        -0.777172         2.640922
