19
Iteration:  2656charge 0 multiplicity 1
 O         0.388569        -0.198301         0.380888
 C        -0.846964         0.385515         0.912494
 C        -1.998257         0.884144         0.103010
 C        -2.444266         0.931188         1.623729
 C        -1.005454         1.634776         1.910648
 C        -3.979887         0.826717         1.859214
 O        -4.247564        -0.588844         1.388829
 C        -2.916903        -1.422250         1.425856
 C        -1.774627        -0.444488         1.882233
 H         0.326350        -1.268637         0.555361
 H        -1.782429         1.643598        -0.741241
 H        -2.610197        -0.005114        -0.367479
 H        -0.698940         2.618934         1.518000
 H        -0.650608         1.471198         3.042828
 H        -4.145076         0.828743         2.966292
 H        -4.517213         1.606179         1.302464
 H        -3.108440        -2.166356         2.189510
 H        -2.768161        -1.701757         0.334689
 H        -1.373285        -0.686473         2.870711
