19
Iteration:   969
 O         0.419809        -0.244729         0.562334
 C        -0.781297         0.373317         0.861954
 C        -1.983877         0.975978         0.060376
 C        -2.388700         0.911935         1.561386
 C        -1.041083         1.433979         1.933107
 C        -3.887634         0.876512         1.869550
 O        -4.231748        -0.561000         1.660364
 C        -3.037302        -1.353030         1.204999
 C        -1.893225        -0.557027         1.685372
 H         0.989888         0.324143         0.942603
 H        -1.862801         1.879362        -0.506306
 H        -2.453406         0.281101        -0.638437
 H        -1.000197         2.594346         1.687704
 H        -0.632511         1.188500         2.888383
 H        -4.099968         1.184308         2.854395
 H        -4.501757         1.560656         1.188480
 H        -3.307670        -2.364180         1.656904
 H        -3.168022        -1.532477         0.174347
 H        -1.481314        -0.884436         2.672635
