19
Iteration:  2710charge 0 multiplicity 1
 O         0.441963        -0.200654         0.523222
 C        -0.762809         0.360091         0.897923
 C        -1.968471         0.774712         0.023630
 C        -2.473086         0.921987         1.506208
 C        -1.008913         1.607252         1.858094
 C        -3.900918         0.709347         1.930355
 O        -4.258380        -0.558586         1.480726
 C        -3.074880        -1.313862         1.473477
 C        -1.837150        -0.451621         1.746731
 H         0.907191         0.619094         0.010810
 H        -1.732448         1.736980        -0.490461
 H        -2.522582         0.061047        -0.669979
 H        -0.811841         2.649342         1.487150
 H        -0.780335         1.279792         2.957369
 H        -3.959161         0.763237         3.061273
 H        -4.622500         1.431811         1.530546
 H        -3.120453        -2.139982         2.189410
 H        -3.068749        -1.759934         0.402225
 H        -1.579560        -0.507440         2.820368
