19
Iteration:  1928charge 0 multiplicity 1
 O         0.387644        -0.237228         0.451780
 C        -0.773051         0.361549         0.910456
 C        -1.837704         0.909945         0.056194
 C        -2.472040         0.973716         1.530080
 C        -1.119820         1.530196         1.956106
 C        -3.953303         0.838735         1.815749
 O        -4.189322        -0.584596         1.772415
 C        -3.077791        -1.334152         1.204411
 C        -1.813436        -0.613257         1.714424
 H         1.287560         0.230394         0.805936
 H        -1.706005         1.991263        -0.327560
 H        -2.304247         0.284870        -0.681270
 H        -0.710815         2.565745         1.688124
 H        -0.780570         1.302044         2.957200
 H        -4.247769         1.200925         2.841647
 H        -4.674773         1.301329         1.079601
 H        -3.298263        -2.358154         1.554865
 H        -3.118332        -1.334348         0.080384
 H        -1.721930        -0.757667         2.770813
