19
Iteration:  1497
 O         0.430396        -0.154547         0.464932
 C        -0.829012         0.301221         0.903297
 C        -1.964110         0.895656         0.075802
 C        -2.438586         0.852022         1.611758
 C        -1.084277         1.479212         2.046926
 C        -3.888259         0.842622         1.946713
 O        -4.252392        -0.409465         1.337955
 C        -2.968888        -1.360086         1.393015
 C        -1.785458        -0.568960         1.735246
 H         0.348833        -0.349962        -0.568076
 H        -1.849828         1.866980        -0.422716
 H        -2.427555         0.147126        -0.538593
 H        -0.850287         2.486507         1.610186
 H        -0.835816         1.386834         3.193793
 H        -4.039494         0.792863         3.013105
 H        -4.667909         1.524874         1.545693
 H        -3.219023        -2.172129         2.149087
 H        -2.987576        -1.883586         0.465774
 H        -1.479216        -0.783787         2.749092
