19
Iteration:    34charge 0 multiplicity 1
 O         0.616752         0.095152         0.565189
 C        -0.758988         0.244957         0.838145
 C        -1.938762         0.640462        -0.087247
 C        -2.479365         0.860068         1.430737
 C        -1.152765         1.477164         1.711329
 C        -3.900359         0.869507         2.014666
 O        -4.324459        -0.459121         1.699087
 C        -3.152095        -1.334709         1.404636
 C        -1.793995        -0.572957         1.735100
 H         0.992311        -0.344465         1.520478
 H        -1.751165         1.554321        -0.627589
 H        -2.336564        -0.132621        -0.782566
 H        -0.851196         2.461800         1.270083
 H        -0.926468         1.382394         2.757011
 H        -3.860924         1.009994         3.060114
 H        -4.611689         1.577464         1.592722
 H        -3.336702        -2.239075         1.992208
 H        -3.253847        -1.531607         0.349173
 H        -1.291185        -0.833065         2.670776
