19
Iteration:  1152
 O         0.320845        -0.170756         0.363094
 C        -0.828539         0.226957         0.989433
 C        -1.897520         0.909201         0.166653
 C        -2.438484         0.948217         1.655352
 C        -0.930648         1.461235         1.990397
 C        -3.964817         0.776946         1.887403
 O        -4.204937        -0.509184         1.307570
 C        -3.036068        -1.286524         1.339457
 C        -1.872005        -0.497029         1.777666
 H         1.172189         0.163045         0.744920
 H        -1.664351         1.913058        -0.220466
 H        -2.452273         0.295909        -0.585278
 H        -0.806265         2.507056         1.657310
 H        -0.448003         1.395729         2.971030
 H        -4.115073         0.738087         3.050859
 H        -4.691242         1.502521         1.528735
 H        -3.252782        -2.132954         1.949612
 H        -3.068610        -1.806867         0.343663
 H        -1.582695        -0.879321         2.740386
