19
Iteration:  1880charge 0 multiplicity 1
 O         0.411710        -0.238326         0.567293
 C        -0.832188         0.306036         0.921645
 C        -1.913985         1.028966        -0.010122
 C        -2.471408         0.920074         1.505810
 C        -1.062258         1.455543         1.982863
 C        -3.908057         0.855918         1.812031
 O        -4.175780        -0.559365         1.794740
 C        -3.020278        -1.418427         1.194423
 C        -1.868708        -0.522465         1.679870
 H         0.716764         0.401805        -0.123671
 H        -1.557640         2.014377        -0.364548
 H        -2.416948         0.426952        -0.864184
 H        -0.849292         2.479398         1.747543
 H        -0.910680         1.366953         3.170490
 H        -4.245747         1.365569         2.725816
 H        -4.413523         1.364404         0.930274
 H        -3.069006        -2.394508         1.728015
 H        -3.324925        -1.512310         0.198636
 H        -1.446753        -0.979708         2.635741
