19
Iteration:   187charge 0 multiplicity 1
 O         0.514279        -0.025969         0.566353
 C        -0.791365         0.384454         0.881968
 C        -1.912967         0.730122        -0.073267
 C        -2.481419         0.889102         1.478677
 C        -0.994162         1.543652         1.711662
 C        -3.892032         0.839467         2.013716
 O        -4.247802        -0.549361         1.611623
 C        -3.187743        -1.373130         1.407844
 C        -1.859739        -0.526764         1.712216
 H         0.806163        -0.528891         1.514609
 H        -1.736596         1.491984        -0.685352
 H        -2.394065        -0.144390        -0.533187
 H        -1.064502         2.523671         1.088844
 H        -0.562274         1.607735         2.664049
 H        -3.856754         1.011917         3.180150
 H        -4.662213         1.489990         1.592577
 H        -3.254168        -2.173550         2.166823
 H        -3.228298        -1.800077         0.420807
 H        -1.542977        -0.821790         2.744734
