19
Iteration:  3421charge 0 multiplicity 1
 O         0.377389        -0.161735         0.415213
 C        -0.863101         0.308195         0.955083
 C        -1.760285         0.888530        -0.069884
 C        -2.492115         0.982692         1.387363
 C        -1.062607         1.589147         1.824644
 C        -4.012885         0.845109         1.719897
 O        -4.161170        -0.706434         1.941805
 C        -2.933020        -1.354237         1.431891
 C        -1.914268        -0.435126         1.865311
 H         0.394080        -1.145469        -0.056413
 H        -1.362028         1.795814        -0.419292
 H        -2.214275         0.223511        -0.910158
 H        -0.903009         2.505372         1.297722
 H        -0.738645         1.690399         2.892190
 H        -4.458949         1.176396         2.651533
 H        -4.635871         1.179640         0.904159
 H        -3.184140        -2.342903         1.858808
 H        -2.880380        -1.508989         0.342656
 H        -1.681651        -0.289421         2.971426
