19
Iteration:  3848
 O         0.329372        -0.223942         0.429107
 C        -0.838850         0.355461         0.912458
 C        -1.919350         0.733656        -0.074946
 C        -2.502948         1.006909         1.485021
 C        -1.026520         1.642740         1.732496
 C        -3.955066         0.715884         2.005365
 O        -4.157418        -0.571178         1.452119
 C        -2.987099        -1.357398         1.659345
 C        -1.830282        -0.430717         1.827608
 H         1.059585         0.282836         0.611426
 H        -1.591791         1.581530        -0.759412
 H        -2.417390         0.027708        -0.684479
 H        -0.866809         2.611365         1.243653
 H        -0.887706         1.746198         2.783799
 H        -3.978513         0.809222         3.133194
 H        -4.800649         1.348918         1.674157
 H        -3.087481        -2.202843         2.403616
 H        -2.796085        -1.890823         0.753882
 H        -1.335215        -0.309231         2.765057
