19
Iteration:  4376
 O         0.450701        -0.170083         0.505157
 C        -0.847162         0.250726         0.910775
 C        -1.891894         0.825220        -0.040565
 C        -2.532350         0.911926         1.350638
 C        -1.116261         1.561911         1.749490
 C        -3.886610         0.832987         1.879293
 O        -4.224816        -0.594929         1.730248
 C        -2.965880        -1.415793         1.548979
 C        -1.856143        -0.413004         1.788383
 H         0.964352         0.741630         0.276527
 H        -1.640691         1.702232        -0.686235
 H        -2.338560         0.058029        -0.635089
 H        -0.786626         2.450944         1.207425
 H        -0.952866         1.647690         2.789254
 H        -4.167548         1.207331         2.902179
 H        -4.504528         1.401258         1.227602
 H        -3.089672        -2.290125         2.123265
 H        -2.975602        -1.677394         0.507145
 H        -1.635195        -0.373342         2.884825
