19
Iteration:  4347charge 0 multiplicity 1
 O         0.425402        -0.346153         0.580130
 C        -0.803866         0.413357         0.856096
 C        -1.934175         0.868910        -0.076041
 C        -2.521013         0.923052         1.429238
 C        -1.189313         1.670459         1.890858
 C        -3.926106         0.778938         1.705056
 O        -4.124314        -0.611406         1.958024
 C        -2.959959        -1.384323         1.429756
 C        -1.825422        -0.360011         1.672789
 H         0.818893        -0.008288        -0.355687
 H        -1.865763         1.766767        -0.734423
 H        -2.348817        -0.018196        -0.583539
 H        -0.763159         2.681740         1.651576
 H        -1.006734         1.285122         2.951846
 H        -4.435243         1.332416         2.455256
 H        -4.320837         1.135110         0.641820
 H        -2.898015        -2.345008         2.012124
 H        -3.208550        -1.696005         0.366471
 H        -1.535108        -0.456052         2.713267
