19
Iteration:  1943
 O         0.431973        -0.169914         0.446424
 C        -0.812037         0.232608         0.994268
 C        -1.957139         0.902185         0.052244
 C        -2.428913         0.860751         1.462666
 C        -1.132694         1.497889         1.983154
 C        -3.829200         0.866414         1.864730
 O        -4.155497        -0.542584         1.736552
 C        -3.058435        -1.328214         1.171804
 C        -1.931051        -0.498566         1.692440
 H         1.073554         0.177208         1.142535
 H        -1.706198         1.785117        -0.465156
 H        -2.452098         0.274855        -0.731742
 H        -1.079050         2.487065         1.475300
 H        -0.962056         1.521863         3.059038
 H        -3.959783         1.108157         2.931464
 H        -4.468018         1.446652         1.216318
 H        -3.059980        -2.270855         1.694181
 H        -3.142495        -1.434694         0.012273
 H        -1.540299        -0.811570         2.686015
