19
Iteration:   774charge 0 multiplicity 1
 O         0.453338        -0.040386         0.531247
 C        -0.829003         0.227239         0.934101
 C        -1.941723         0.926790         0.007259
 C        -2.437764         0.963566         1.512702
 C        -0.993729         1.460800         1.944205
 C        -3.839295         0.879877         1.938081
 O        -4.242957        -0.555018         1.584341
 C        -3.090016        -1.381571         1.236612
 C        -1.946954        -0.610915         1.723479
 H         0.831945        -0.933522         0.673638
 H        -1.614568         1.916262        -0.252180
 H        -2.476421         0.289098        -0.741668
 H        -0.669488         2.466705         1.464163
 H        -0.791017         1.451398         2.962498
 H        -3.844649         0.995714         2.999663
 H        -4.560938         1.565060         1.391290
 H        -3.009029        -2.334779         1.772764
 H        -3.197441        -1.493038         0.117110
 H        -1.761525        -0.696044         2.807328
