19
Iteration:  4350
 O         0.430986        -0.343794         0.570932
 C        -0.826105         0.433902         0.860851
 C        -1.932423         0.854332        -0.091558
 C        -2.512941         0.910516         1.438153
 C        -1.202685         1.675144         1.887145
 C        -3.915175         0.786985         1.697404
 O        -4.130234        -0.607114         1.936013
 C        -2.964532        -1.381764         1.441149
 C        -1.806335        -0.364356         1.683373
 H         0.832088         0.048280        -0.291916
 H        -1.817355         1.723510        -0.694494
 H        -2.366080        -0.030665        -0.650607
 H        -0.691338         2.658008         1.734488
 H        -1.018482         1.210624         2.893389
 H        -4.373714         1.340062         2.513519
 H        -4.449394         1.176009         0.766823
 H        -2.887067        -2.325623         2.088353
 H        -3.243338        -1.751068         0.417367
 H        -1.539245        -0.529245         2.732734
