19
Iteration:  1538charge 0 multiplicity 1
 O         0.528240        -0.118252         0.553481
 C        -0.772388         0.269667         0.933416
 C        -1.912883         0.837402         0.038982
 C        -2.452400         0.983183         1.470748
 C        -1.007163         1.427308         1.965475
 C        -3.956188         0.821867         1.964658
 O        -4.333934        -0.514330         1.645569
 C        -3.077331        -1.375308         1.219600
 C        -1.878928        -0.502821         1.646050
 H         0.925869         0.624492         0.044381
 H        -1.780106         1.714486        -0.599889
 H        -2.419513         0.099691        -0.633882
 H        -0.744268         2.459027         1.514821
 H        -0.729547         1.323720         2.991871
 H        -3.897664         0.885693         3.113356
 H        -4.577454         1.620262         1.601973
 H        -3.141921        -2.313626         1.767512
 H        -3.234801        -1.663308         0.158987
 H        -1.491221        -0.879957         2.595955
