19
Iteration:  1268
 O         0.393128        -0.089124         0.474585
 C        -0.821398         0.325491         0.979985
 C        -1.897962         0.911817         0.074850
 C        -2.397630         0.904995         1.541156
 C        -1.131812         1.456085         1.979268
 C        -3.803237         0.844261         1.820762
 O        -4.198642        -0.564351         1.711398
 C        -3.103129        -1.332501         1.145705
 C        -1.873308        -0.549016         1.674038
 H         0.500776        -0.879101         0.969547
 H        -1.682949         1.952204        -0.113973
 H        -2.111515         0.316818        -0.847422
 H        -0.809551         2.377232         1.721877
 H        -0.873664         1.207898         3.014615
 H        -4.062391         1.100771         2.871369
 H        -4.368342         1.534840         1.155138
 H        -3.213323        -2.431591         1.455020
 H        -3.150669        -1.365499         0.046153
 H        -1.665085        -0.801078         2.766220
