19
Iteration:  3130
 O         0.428673        -0.302992         0.576157
 C        -0.786166         0.282140         0.914883
 C        -1.899329         0.879546        -0.017211
 C        -2.470172         1.022162         1.404461
 C        -1.098318         1.666194         1.776898
 C        -4.019303         0.803529         1.699382
 O        -4.162518        -0.713359         2.022148
 C        -2.977483        -1.327995         1.384293
 C        -1.865655        -0.385616         1.692605
 H         0.845637        -0.006147        -0.284964
 H        -1.676821         1.814757        -0.389351
 H        -2.299836         0.222009        -0.878902
 H        -0.934996         2.610313         1.190926
 H        -0.892555         1.566694         2.902513
 H        -4.470927         1.324263         2.527416
 H        -4.620085         1.039599         0.782368
 H        -2.777583        -2.308057         1.888619
 H        -3.096698        -1.514544         0.291111
 H        -1.602479        -0.490489         2.759058
