19
Iteration:  1705charge 0 multiplicity 1
 O         0.380629        -0.243240         0.538295
 C        -0.811862         0.362752         0.917254
 C        -1.957654         0.931834         0.069579
 C        -2.434862         0.857011         1.564205
 C        -1.120883         1.593818         1.916870
 C        -3.787627         0.848746         1.995943
 O        -4.228908        -0.527575         1.383709
 C        -3.059529        -1.360064         1.342676
 C        -1.820202        -0.574873         1.738427
 H         0.688804         0.283370        -0.237786
 H        -1.782639         1.906685        -0.416868
 H        -2.436262         0.166096        -0.575720
 H        -0.785949         2.418596         1.464633
 H        -0.840685         1.369547         2.959920
 H        -3.850312         0.747190         3.099672
 H        -4.511439         1.613040         1.631621
 H        -3.156222        -2.160412         2.226448
 H        -3.149224        -1.938835         0.440660
 H        -1.361246        -0.699093         2.713533
