19
Iteration:  3250charge 0 multiplicity 1
 O         0.360659        -0.338361         0.451577
 C        -0.773636         0.303104         0.932242
 C        -1.980153         0.734557         0.016568
 C        -2.475512         1.019015         1.458895
 C        -1.123155         1.727543         1.776928
 C        -3.876117         0.783612         1.924492
 O        -4.163724        -0.600104         1.494981
 C        -2.924348        -1.388912         1.548779
 C        -1.873690        -0.348226         1.892167
 H         0.667175         0.352293        -0.302444
 H        -1.940789         1.557149        -0.685142
 H        -2.392223        -0.185091        -0.563632
 H        -1.142440         2.646584         1.171833
 H        -0.847928         1.860580         2.877458
 H        -3.875088         0.788391         3.015091
 H        -4.644534         1.469781         1.532975
 H        -2.942734        -2.155290         2.359548
 H        -2.790132        -1.804508         0.513535
 H        -1.589131        -0.205754         2.936161
