19
Iteration:   604charge 0 multiplicity 1
 O         0.434359        -0.235434         0.491792
 C        -0.840144         0.345198         0.894717
 C        -2.015848         0.876040         0.079139
 C        -2.405271         0.875632         1.606482
 C        -1.063063         1.491174         1.931650
 C        -3.900545         0.879728         1.934515
 O        -4.237287        -0.483496         1.372076
 C        -3.028427        -1.390920         1.373541
 C        -1.809221        -0.531883         1.798280
 H         1.211911         0.502526         0.356663
 H        -2.014061         1.887840        -0.363429
 H        -2.562223         0.229488        -0.546599
 H        -0.870607         2.455210         1.527605
 H        -0.473499         1.427478         2.901967
 H        -4.124288         1.042385         3.074537
 H        -4.545666         1.572198         1.407588
 H        -3.238219        -2.310674         1.947216
 H        -3.073165        -1.699983         0.284739
 H        -1.382289        -0.862414         2.764372
