19
Iteration:   601
 O         0.389765        -0.225503         0.481113
 C        -0.818361         0.345171         0.922269
 C        -2.016375         0.877341         0.082611
 C        -2.384942         0.868106         1.594606
 C        -1.043580         1.500757         1.941546
 C        -3.874080         0.844507         1.918252
 O        -4.238725        -0.499433         1.362790
 C        -3.040465        -1.359156         1.365793
 C        -1.813939        -0.525684         1.819468
 H         1.047050         0.355637         0.448855
 H        -1.981440         1.905750        -0.345492
 H        -2.550594         0.192328        -0.668632
 H        -0.961057         2.622576         1.456945
 H        -0.468533         1.380502         2.877488
 H        -4.042170         0.972525         3.070077
 H        -4.542485         1.599983         1.452908
 H        -3.283849        -2.195876         1.968471
 H        -3.030844        -1.755446         0.347207
 H        -1.370879        -0.810935         2.751275
