19
Iteration:  4445
 O         0.383947        -0.122476         0.370535
 C        -0.840208         0.297034         0.870915
 C        -1.990624         0.776594         0.013673
 C        -2.445281         0.981985         1.510448
 C        -1.126006         1.625590         1.736866
 C        -3.865781         0.751600         1.874338
 O        -4.161739        -0.553637         1.407416
 C        -3.034727        -1.428012         1.725666
 C        -1.813059        -0.417308         1.914859
 H         1.013614        -0.560573         1.024783
 H        -1.756902         1.627191        -0.650483
 H        -2.418090        -0.058434        -0.644391
 H        -0.703071         2.440344         1.138017
 H        -0.789148         1.600500         2.796743
 H        -4.092715         0.935561         2.961592
 H        -4.684782         1.433909         1.423483
 H        -3.063808        -2.092386         2.574745
 H        -2.848203        -1.962547         0.788363
 H        -1.494479        -0.305735         2.966691
