19
Iteration:  3739
 O         0.506063        -0.105433         0.509278
 C        -0.839890         0.340831         0.848641
 C        -1.883554         0.934467        -0.052085
 C        -2.455523         0.889383         1.434898
 C        -1.138636         1.499537         1.830056
 C        -3.976958         0.812575         1.678887
 O        -4.182966        -0.612768         2.063331
 C        -3.050013        -1.360795         1.395779
 C        -1.839408        -0.441458         1.654684
 H         0.496902        -0.979852         0.812388
 H        -1.828295         1.914194        -0.591594
 H        -2.252354         0.133620        -0.696484
 H        -0.737890         2.475803         1.413684
 H        -0.845267         1.363323         2.870088
 H        -4.436019         1.445646         2.483448
 H        -4.396852         1.029140         0.687780
 H        -3.032608        -2.297778         2.024673
 H        -3.158244        -1.641680         0.357626
 H        -1.434572        -0.753896         2.603073
