19
Iteration:  4205
 O         0.205376        -0.272105         0.443208
 C        -0.897435         0.342042         0.870551
 C        -2.031146         0.721071         0.000055
 C        -2.398464         0.937907         1.603005
 C        -1.160457         1.689285         1.758784
 C        -3.894261         0.754581         1.850351
 O        -4.111403        -0.540890         1.377014
 C        -2.870231        -1.364525         1.580290
 C        -1.683538        -0.396049         1.964404
 H         1.149818         0.168249         0.785856
 H        -1.893302         1.681365        -0.600905
 H        -2.707633         0.020070        -0.409079
 H        -1.009253         2.613248         1.078008
 H        -0.805583         1.860486         2.822093
 H        -4.101359         0.757044         2.975200
 H        -4.453938         1.587560         1.323837
 H        -2.979819        -2.085703         2.435885
 H        -2.790482        -1.919556         0.566966
 H        -1.357225        -0.605983         2.960973
