19
Iteration:  2393
 O         0.420021        -0.132474         0.440887
 C        -0.786358         0.350736         0.873917
 C        -1.983044         0.917717         0.123379
 C        -2.419783         0.895244         1.585653
 C        -1.022722         1.537905         1.983915
 C        -3.867513         0.771509         1.928876
 O        -4.246745        -0.522834         1.415411
 C        -3.035044        -1.380812         1.373830
 C        -1.854487        -0.502877         1.663673
 H         0.363150        -1.057551         0.942719
 H        -1.925693         2.046733        -0.219400
 H        -2.484614         0.173748        -0.539853
 H        -0.999782         2.507478         1.579152
 H        -0.649102         1.348190         3.063010
 H        -3.930532         1.058481         3.006093
 H        -4.576793         1.462220         1.469647
 H        -3.211263        -2.153735         2.100767
 H        -2.996465        -1.952096         0.445896
 H        -1.398265        -0.728985         2.640624
