19
Iteration:  3632
 O         0.404191        -0.202932         0.536096
 C        -0.839428         0.402804         0.856436
 C        -2.104183         0.777606        -0.029385
 C        -2.399932         1.014382         1.586387
 C        -0.956600         1.561073         1.776983
 C        -3.944672         0.739812         1.924678
 O        -4.212239        -0.557793         1.398895
 C        -2.976149        -1.384955         1.621303
 C        -1.821941        -0.449290         1.830039
 H         0.695926         0.191190        -0.194445
 H        -2.030981         1.804121        -0.456636
 H        -2.569705         0.020476        -0.543318
 H        -0.760986         2.541604         1.298658
 H        -0.512538         1.314548         2.702536
 H        -4.232005         0.744343         2.977293
 H        -4.595723         1.384724         1.379028
 H        -3.280070        -2.102726         2.358527
 H        -2.785619        -1.808476         0.608266
 H        -1.152851        -0.570088         2.714027
