19
Iteration:  3517
 O         0.504027        -0.156359         0.521773
 C        -0.770430         0.297583         0.909089
 C        -1.951861         0.693315        -0.064146
 C        -2.496630         1.006281         1.380815
 C        -1.128353         1.649884         1.793472
 C        -3.870812         0.812256         2.002612
 O        -4.231256        -0.541882         1.723842
 C        -3.121009        -1.394942         1.367346
 C        -1.788738        -0.512293         1.702405
 H         1.129053         0.583807         0.502011
 H        -1.688685         1.525854        -0.701584
 H        -2.411510        -0.145607        -0.578128
 H        -1.033580         2.676727         1.421862
 H        -0.901200         1.544673         2.874413
 H        -3.853685         0.920073         3.094332
 H        -4.768219         1.382172         1.647702
 H        -3.043971        -2.217187         2.157035
 H        -3.198603        -1.840619         0.384597
 H        -1.725015        -0.599021         2.769381
