19
Iteration:  1714charge 0 multiplicity 1
 O         0.349424        -0.282005         0.500402
 C        -0.803598         0.403201         0.863404
 C        -1.985335         0.896042         0.090828
 C        -2.383897         0.856820         1.620500
 C        -1.134358         1.573053         1.940762
 C        -3.858845         0.848910         1.992349
 O        -4.268093        -0.481965         1.337054
 C        -2.977867        -1.396861         1.361657
 C        -1.797430        -0.531213         1.760929
 H         1.029461         0.050509        -0.150578
 H        -1.922593         1.930534        -0.291858
 H        -2.412384         0.169026        -0.558350
 H        -0.974897         2.606972         1.570155
 H        -0.695350         1.375196         2.855881
 H        -4.037851         0.722081         3.095761
 H        -4.357803         1.733050         1.598937
 H        -3.053690        -2.008833         2.263507
 H        -2.805940        -2.003096         0.488829
 H        -1.447982        -0.867407         2.757380
