19
Iteration:    90
 O         0.360319        -0.245877         0.448055
 C        -0.828457         0.308153         0.891346
 C        -1.948144         0.851262        -0.057608
 C        -2.469161         0.905971         1.471883
 C        -1.135424         1.499986         1.934362
 C        -3.975072         0.854434         1.721527
 O        -4.148935        -0.525347         1.829114
 C        -2.890839        -1.318527         1.366331
 C        -1.842083        -0.432570         1.782685
 H         1.100588        -0.204045         1.245322
 H        -1.621748         1.763785        -0.552939
 H        -2.406560         0.022368        -0.742867
 H        -0.949505         2.550081         1.514239
 H        -0.857989         1.430297         2.947423
 H        -4.379238         1.322402         2.545367
 H        -4.417529         1.276717         0.786812
 H        -2.926651        -2.279404         1.952345
 H        -2.942442        -1.638300         0.323170
 H        -1.580534        -0.644219         2.826251
