19
Iteration:  4939charge 0 multiplicity 1
 O         0.358738        -0.301129         0.582829
 C        -0.828401         0.353697         0.938668
 C        -1.967657         0.752369         0.010383
 C        -2.486228         0.890297         1.573257
 C        -1.126499         1.637595         1.623742
 C        -3.957434         0.846866         1.945106
 O        -4.196481        -0.566769         1.611996
 C        -2.866255        -1.339890         1.351953
 C        -1.796022        -0.422483         1.833450
 H         1.077353         0.370371         0.424213
 H        -1.761623         1.731359        -0.558456
 H        -2.586417         0.176148        -0.685451
 H        -0.944512         2.584727         1.146105
 H        -0.776583         1.612111         2.665249
 H        -4.117582         1.062091         3.005661
 H        -4.672266         1.319073         1.256764
 H        -2.875145        -2.332439         1.826265
 H        -2.901374        -1.485233         0.228402
 H        -1.366770        -0.496743         2.864998
