19
Iteration:  3417
 O         0.397272        -0.184243         0.421595
 C        -0.849498         0.307730         0.973603
 C        -1.771074         0.849126        -0.043015
 C        -2.504182         0.974082         1.391744
 C        -1.082885         1.616053         1.799768
 C        -3.986928         0.848794         1.741412
 O        -4.156025        -0.696559         1.932064
 C        -2.957239        -1.365963         1.416591
 C        -1.936268        -0.394704         1.833697
 H         0.307619        -0.929683        -0.076948
 H        -1.336966         1.812576        -0.373750
 H        -2.222389         0.372668        -0.804375
 H        -0.842465         2.585908         1.289590
 H        -0.708147         1.617417         2.804507
 H        -4.422370         1.151522         2.685291
 H        -4.676741         1.105677         0.903491
 H        -2.991001        -2.367728         1.930274
 H        -2.830085        -1.554678         0.347517
 H        -1.746268        -0.437596         2.886374
