19
Iteration:  2364charge 0 multiplicity 1
 O         0.282268        -0.202625         0.294276
 C        -0.884531         0.239803         0.939606
 C        -1.928202         0.920501         0.150788
 C        -2.441388         1.024075         1.624207
 C        -1.060224         1.532162         1.981867
 C        -3.896724         0.764422         1.942557
 O        -4.176191        -0.520728         1.295713
 C        -2.904580        -1.368831         1.381692
 C        -1.856763        -0.477626         1.863016
 H         0.803492        -0.635076         0.945314
 H        -1.552372         1.837808        -0.206305
 H        -2.524522         0.313204        -0.569582
 H        -0.781717         2.590531         1.594944
 H        -0.764829         1.474949         3.082963
 H        -3.958225         0.851950         3.048928
 H        -4.625779         1.437448         1.428386
 H        -3.255295        -2.253929         1.988477
 H        -2.658408        -1.720613         0.353634
 H        -1.383773        -0.648908         2.872631
