19
Iteration:  4372charge 0 multiplicity 1
 O         0.420876        -0.177103         0.515617
 C        -0.816748         0.250575         0.887335
 C        -1.883569         0.830342        -0.053488
 C        -2.538503         0.940784         1.318718
 C        -1.114847         1.564912         1.805643
 C        -3.913050         0.840852         1.851259
 O        -4.203232        -0.601021         1.762250
 C        -2.963009        -1.388916         1.548919
 C        -1.833855        -0.437954         1.774716
 H         0.932544         0.548268         0.229159
 H        -1.708544         1.711402        -0.640169
 H        -2.368562         0.021069        -0.664831
 H        -0.986966         2.528610         1.231465
 H        -0.940955         1.595656         2.918282
 H        -4.138907         1.206718         2.853396
 H        -4.586883         1.410055         1.160751
 H        -3.093916        -2.337676         2.167682
 H        -2.943150        -1.741943         0.472669
 H        -1.550685        -0.421296         2.836621
