19
Iteration:  4153
 O         0.442499        -0.046375         0.401905
 C        -0.873505         0.305334         0.848245
 C        -1.992753         0.700163        -0.025463
 C        -2.483363         0.971098         1.455219
 C        -1.016997         1.615859         1.791899
 C        -3.953434         0.798470         1.891231
 O        -4.224136        -0.634406         1.521539
 C        -2.968178        -1.366319         1.654145
 C        -1.808957        -0.375022         1.885169
 H         0.682528        -0.967986         0.687984
 H        -1.794573         1.661148        -0.556119
 H        -2.231418        -0.089239        -0.745517
 H        -0.928120         2.596197         1.298052
 H        -0.600586         1.379301         2.784110
 H        -4.093211         1.007004         2.990082
 H        -4.597761         1.360017         1.166773
 H        -2.954524        -2.108112         2.505518
 H        -2.897624        -1.905455         0.708301
 H        -1.581674        -0.540947         2.974453
