19
Iteration:  4026charge 0 multiplicity 1
 O         0.378761        -0.230248         0.460263
 C        -0.802011         0.330418         0.925848
 C        -2.001567         0.855407        -0.039019
 C        -2.465625         1.017519         1.380022
 C        -1.018473         1.586663         1.790434
 C        -3.920128         0.744945         1.588927
 O        -4.152516        -0.664531         1.993600
 C        -2.992764        -1.417419         1.527301
 C        -1.883314        -0.370033         1.816010
 H         1.086360         0.585422         0.394583
 H        -1.810250         1.758236        -0.573153
 H        -2.406897         0.023362        -0.693753
 H        -0.724845         2.444964         1.218000
 H        -0.568894         1.689206         2.789889
 H        -4.502842         1.311728         2.361271
 H        -4.413715         0.987881         0.665196
 H        -2.998810        -2.402826         2.042273
 H        -3.077464        -1.654229         0.422549
 H        -1.863280        -0.121738         2.855448
