19
Iteration:   271charge 0 multiplicity 1
 O         0.428987        -0.370845         0.417692
 C        -0.826171         0.280290         0.922997
 C        -2.040494         0.970773         0.112626
 C        -2.518414         0.993523         1.537643
 C        -0.940381         1.568028         1.803691
 C        -4.032597         0.753864         1.820957
 O        -4.131566        -0.593725         1.471362
 C        -2.979632        -1.360711         1.512286
 C        -1.871890        -0.348488         1.885573
 H         1.092980         0.461106         0.339155
 H        -1.871543         2.100045        -0.323572
 H        -2.509375         0.288102        -0.613324
 H        -0.473249         2.519912         1.491196
 H        -0.604866         1.340449         2.824903
 H        -4.369768         0.918858         2.781295
 H        -4.577394         1.304362         1.066905
 H        -3.046204        -2.227337         2.185335
 H        -2.883023        -1.926059         0.506444
 H        -1.670165        -0.357759         2.965241
