19
Iteration:  4416
 O         0.488021        -0.100441         0.506023
 C        -0.806235         0.352444         0.890453
 C        -2.105028         0.551029        -0.003128
 C        -2.428047         0.900151         1.552016
 C        -1.154561         1.633036         1.670949
 C        -3.868968         0.806760         2.000751
 O        -4.242023        -0.434641         1.446661
 C        -3.009509        -1.384696         1.527962
 C        -1.767421        -0.463819         1.807804
 H         1.079947         0.338652         1.008635
 H        -2.138205         1.346618        -0.745374
 H        -2.393695        -0.401913        -0.524456
 H        -0.821638         2.513021         1.035690
 H        -0.800214         1.483162         2.738293
 H        -3.951197         0.928182         3.086695
 H        -4.505036         1.568864         1.507753
 H        -2.987791        -2.117691         2.434751
 H        -3.054305        -2.047267         0.610963
 H        -1.356076        -0.497661         2.835703
