19
Iteration:  4392
 O         0.510599        -0.091061         0.506139
 C        -0.774486         0.267119         0.900187
 C        -1.992119         0.644965        -0.068942
 C        -2.452527         0.962014         1.468467
 C        -1.041028         1.622394         1.654349
 C        -3.905974         0.802602         1.930218
 O        -4.262962        -0.574333         1.622327
 C        -3.057355        -1.372352         1.468825
 C        -1.920390        -0.444616         1.926044
 H         1.195720         0.715468         0.559416
 H        -1.826602         1.637087        -0.487369
 H        -2.503964        -0.029237        -0.824561
 H        -0.958330         2.574259         1.040010
 H        -0.563895         1.548928         2.695093
 H        -3.838096         0.917327         3.004071
 H        -4.749673         1.473661         1.512775
 H        -3.059216        -2.212872         2.254282
 H        -2.966698        -1.903038         0.478315
 H        -1.634517        -0.578454         2.964219
