19
Iteration:   326charge 0 multiplicity 1
 O         0.620536        -0.173546         0.586593
 C        -0.751733         0.236283         0.889682
 C        -1.972092         0.735560        -0.025476
 C        -2.480236         0.933732         1.520390
 C        -1.174360         1.605686         1.812451
 C        -3.944545         0.855897         2.054401
 O        -4.270872        -0.472886         1.493660
 C        -3.051882        -1.347276         1.373901
 C        -1.816137        -0.526582         1.787057
 H         0.649469        -0.041133        -0.431338
 H        -1.779307         1.758186        -0.620812
 H        -2.629789        -0.030591        -0.540137
 H        -0.970835         2.511304         1.185313
 H        -0.806422         1.751132         2.807983
 H        -3.924077         0.816329         3.127012
 H        -4.753990         1.514144         1.760060
 H        -3.147372        -2.255714         2.011294
 H        -3.121338        -1.662990         0.259533
 H        -1.479797        -0.651687         2.814722
