19
Iteration:  3387charge 0 multiplicity 1
 O         0.477107        -0.219618         0.641063
 C        -0.817827         0.385508         0.814125
 C        -2.042713         0.754181        -0.104185
 C        -2.483841         0.913036         1.416260
 C        -1.117000         1.628106         1.829534
 C        -3.898753         0.881912         1.864659
 O        -4.187279        -0.586715         1.811243
 C        -3.005091        -1.364577         1.423523
 C        -1.788665        -0.466232         1.725299
 H         0.761695        -0.173800        -0.325742
 H        -2.023192         1.592570        -0.739493
 H        -2.569768        -0.067753        -0.639709
 H        -0.946875         2.620918         1.411816
 H        -0.729723         1.438213         2.849632
 H        -4.119915         1.138558         2.873316
 H        -4.591916         1.326222         1.171446
 H        -3.007956        -2.313755         2.001845
 H        -2.794270        -1.519821         0.373111
 H        -1.433764        -0.637802         2.772765
