19
Iteration:  4870
 O         0.537318        -0.030429         0.552749
 C        -0.741104         0.317213         0.866797
 C        -1.922799         0.939646        -0.062839
 C        -2.440725         0.940966         1.406910
 C        -1.092825         1.532379         1.820625
 C        -3.846774         0.876591         1.808466
 O        -4.279742        -0.585570         1.660944
 C        -3.153618        -1.555508         1.669358
 C        -1.879901        -0.532857         1.699144
 H         0.438284        -0.551257        -0.376703
 H        -1.630815         1.847126        -0.618168
 H        -2.455813         0.317608        -0.756680
 H        -0.924163         2.567801         1.469619
 H        -0.891409         1.420086         2.883493
 H        -4.066241         0.989952         2.887862
 H        -4.408341         1.447308         1.078745
 H        -3.221136        -2.120445         2.598414
 H        -3.274007        -2.295490         0.852440
 H        -1.417414        -0.696241         2.666698
