19
Iteration:   317charge 0 multiplicity 1
 O         0.518818        -0.234248         0.571619
 C        -0.744116         0.347259         0.950564
 C        -2.033765         0.699453        -0.042488
 C        -2.428722         0.896023         1.472031
 C        -1.137670         1.662237         1.871809
 C        -3.896027         0.784093         2.027907
 O        -4.214329        -0.426809         1.488654
 C        -3.053769        -1.358372         1.358798
 C        -1.827686        -0.489992         1.779396
 H         0.740918        -0.026327        -0.421272
 H        -1.867235         1.698761        -0.559827
 H        -2.543432        -0.154089        -0.659300
 H        -1.194096         2.727011         1.399103
 H        -0.893443         1.736075         2.888800
 H        -3.834155         0.799874         3.079077
 H        -4.616587         1.449893         1.639902
 H        -3.177334        -2.166286         2.042013
 H        -3.089063        -1.909111         0.398284
 H        -1.596896        -0.779519         2.817137
