19
Iteration:  3343charge 0 multiplicity 1
 O         0.539329        -0.065546         0.421168
 C        -0.784330         0.311620         0.908900
 C        -1.971377         0.646377        -0.074581
 C        -2.463929         0.971540         1.421839
 C        -1.033327         1.645216         1.696838
 C        -3.859714         0.821998         2.019554
 O        -4.302364        -0.573269         1.573902
 C        -3.091993        -1.437983         1.519252
 C        -1.888960        -0.430034         1.868882
 H         1.189756        -0.088784         1.073911
 H        -1.869005         1.525424        -0.684744
 H        -2.430643        -0.174541        -0.596617
 H        -0.899362         2.626784         1.194765
 H        -0.782794         1.597776         2.758986
 H        -3.698032         0.819588         3.104961
 H        -4.711351         1.428357         1.760767
 H        -3.288168        -2.253639         2.267311
 H        -3.209574        -1.811614         0.507658
 H        -1.635447        -0.503491         2.955112
