19
Iteration:  2133charge 0 multiplicity 1
 O         0.483751         0.055687         0.473990
 C        -0.791379         0.254440         0.969642
 C        -1.935664         0.853536        -0.056855
 C        -2.390715         0.863509         1.541004
 C        -0.955884         1.435054         1.875631
 C        -3.945199         0.814967         1.959813
 O        -4.276257        -0.480378         1.642986
 C        -3.177644        -1.380915         1.266336
 C        -1.891553        -0.592574         1.716351
 H         1.181713        -0.336627         1.183718
 H        -1.415197         1.732614        -0.544797
 H        -2.321914         0.237004        -0.815722
 H        -0.617174         2.428197         1.502989
 H        -0.762907         1.219853         2.954926
 H        -4.119626         0.875674         3.075029
 H        -4.571835         1.541705         1.379509
 H        -3.349823        -2.426861         1.745876
 H        -3.163575        -1.342443         0.145758
 H        -1.793142        -0.817111         2.837446
