19
Iteration:    65charge 0 multiplicity 1
 O         0.502474        -0.094221         0.459316
 C        -0.743817         0.338191         0.913770
 C        -1.816228         0.772010        -0.047133
 C        -2.460292         0.981912         1.344362
 C        -1.104763         1.566385         1.803654
 C        -3.851274         0.846712         1.863358
 O        -4.273864        -0.607434         1.802645
 C        -3.195224        -1.461277         1.406194
 C        -1.955153        -0.446060         1.773850
 H         1.111686         0.005390         1.160363
 H        -1.556833         1.674596        -0.540159
 H        -2.106530         0.013556        -0.673808
 H        -0.711257         2.525536         1.489564
 H        -1.044756         1.544906         2.938707
 H        -3.781941         1.033309         2.907175
 H        -4.609075         1.376629         1.361067
 H        -3.221669        -2.390078         1.901940
 H        -3.256951        -1.744983         0.368630
 H        -1.630014        -0.699447         2.798318
