19
Iteration:   279
 O         0.384957        -0.329543         0.468571
 C        -0.845345         0.255785         0.934065
 C        -2.039782         0.904739         0.017188
 C        -2.531860         1.017565         1.518647
 C        -0.930430         1.567683         1.825234
 C        -3.990133         0.751118         1.869938
 O        -4.136502        -0.548685         1.460381
 C        -2.916959        -1.369507         1.474994
 C        -1.888814        -0.412809         1.893027
 H         0.921867         0.633853         0.178863
 H        -1.583117         1.933989        -0.393978
 H        -2.556664         0.394792        -0.771263
 H        -0.627046         2.524675         1.507692
 H        -0.604190         1.385219         2.923918
 H        -4.267356         0.947996         2.947841
 H        -4.696437         1.373911         1.223461
 H        -3.120664        -2.139987         2.327772
 H        -2.831598        -1.841358         0.451256
 H        -1.559649        -0.461454         2.941612
