19
Iteration:  3252charge 0 multiplicity 1
 O         0.372782        -0.339285         0.437669
 C        -0.780997         0.312787         0.946705
 C        -1.975383         0.735854         0.015823
 C        -2.478669         1.019801         1.461457
 C        -1.102894         1.725353         1.772676
 C        -3.907099         0.771981         1.924885
 O        -4.180513        -0.593124         1.490630
 C        -2.920116        -1.393124         1.559679
 C        -1.860221        -0.347679         1.884912
 H         0.648907         0.242539        -0.287956
 H        -1.936056         1.561940        -0.661574
 H        -2.390307        -0.116039        -0.472576
 H        -1.064623         2.692187         1.179450
 H        -0.823187         1.865392         2.857998
 H        -3.922529         0.780432         2.995387
 H        -4.695117         1.432207         1.512520
 H        -2.871788        -2.197458         2.356618
 H        -2.763934        -1.784018         0.551528
 H        -1.619810        -0.181048         2.922378
