19
Iteration:  1878charge 0 multiplicity 1
 O         0.406094        -0.230479         0.570111
 C        -0.821668         0.310102         0.901096
 C        -1.901991         1.013041        -0.013895
 C        -2.470559         0.904971         1.511160
 C        -1.067861         1.458177         2.005933
 C        -3.899334         0.865608         1.820711
 O        -4.190095        -0.557026         1.791377
 C        -3.008684        -1.403032         1.197324
 C        -1.864557        -0.544072         1.668482
 H         0.663813         0.314784        -0.082023
 H        -1.628486         1.978010        -0.361510
 H        -2.409807         0.465940        -0.838654
 H        -0.908695         2.515616         1.701216
 H        -0.935033         1.420565         3.101245
 H        -4.220467         1.383487         2.715655
 H        -4.410175         1.307936         0.970193
 H        -3.021694        -2.324278         1.715483
 H        -3.343041        -1.488701         0.180564
 H        -1.491013        -0.953666         2.639463
