19
Iteration:  3049
 O         0.449607        -0.083690         0.508777
 C        -0.826418         0.276808         0.951983
 C        -1.915533         0.716530        -0.030616
 C        -2.438494         0.930059         1.452400
 C        -1.079590         1.579245         1.659579
 C        -3.851737         0.810336         1.897411
 O        -4.350049        -0.614848         1.666490
 C        -3.050322        -1.393636         1.479734
 C        -1.837942        -0.427090         1.852875
 H         1.074248         0.666117         0.359597
 H        -1.631580         1.585089        -0.743459
 H        -2.540769         0.003805        -0.431787
 H        -0.790513         2.535193         1.177497
 H        -0.577939         1.595423         2.601017
 H        -3.885029         1.050672         2.989355
 H        -4.445524         1.463542         1.304852
 H        -3.024196        -2.262886         2.118511
 H        -2.999484        -1.661126         0.369016
 H        -1.447985        -0.427272         2.896823
