19
Iteration:  2304
 O         0.462453        -0.108376         0.448805
 C        -0.848594         0.274300         0.926062
 C        -2.031249         0.930001         0.096441
 C        -2.444583         0.878212         1.563695
 C        -1.030934         1.453670         1.888078
 C        -3.788297         0.769437         1.981032
 O        -4.216257        -0.457881         1.425222
 C        -3.106654        -1.369251         1.345741
 C        -1.881908        -0.575619         1.723716
 H         1.293590         0.245495         1.037071
 H        -1.665020         1.964904        -0.326557
 H        -2.530621         0.352550        -0.675690
 H        -0.888657         2.419840         1.474319
 H        -0.933441         1.343687         3.062933
 H        -4.016465         0.975763         3.048094
 H        -4.392633         1.487670         1.434351
 H        -3.266377        -2.101056         2.123395
 H        -3.046124        -1.912692         0.399788
 H        -1.575582        -0.760349         2.730523
