19
Iteration:  1025
 O         0.419682        -0.224738         0.545137
 C        -0.756566         0.285803         0.912545
 C        -1.886685         0.971385         0.058638
 C        -2.378613         0.898178         1.485588
 C        -1.164655         1.504966         2.059461
 C        -3.842583         0.836509         1.840984
 O        -4.230325        -0.553930         1.723146
 C        -3.083091        -1.335350         1.201557
 C        -1.851389        -0.544906         1.650926
 H         0.468746        -0.004493        -0.364012
 H        -1.701175         2.040265        -0.193068
 H        -2.234749         0.413877        -0.790161
 H        -0.847099         2.582477         1.671815
 H        -1.112376         1.286748         3.114790
 H        -4.162942         1.166172         2.793419
 H        -4.454704         1.291026         0.993107
 H        -3.318733        -2.305336         1.710114
 H        -3.213959        -1.279268         0.171486
 H        -1.551592        -0.852525         2.696940
