19
Iteration:  3635charge 0 multiplicity 1
 O         0.391317        -0.186413         0.561652
 C        -0.846361         0.378680         0.812675
 C        -2.076055         0.793206        -0.051031
 C        -2.408960         1.024918         1.588602
 C        -0.936310         1.549792         1.768725
 C        -3.959294         0.719563         1.931442
 O        -4.226611        -0.561267         1.423132
 C        -2.984374        -1.370649         1.611961
 C        -1.806841        -0.454118         1.841924
 H         0.791150         0.384165        -0.235743
 H        -1.972711         1.817659        -0.507092
 H        -2.444392        -0.085888        -0.569520
 H        -0.735384         2.464836         1.276325
 H        -0.521980         1.321477         2.749920
 H        -4.235089         0.798872         2.995079
 H        -4.660525         1.420705         1.401493
 H        -3.175275        -2.133003         2.330453
 H        -2.894466        -1.770475         0.601082
 H        -1.237872        -0.666893         2.752051
