19
Iteration:  1207
 O         0.351387        -0.125582         0.415333
 C        -0.837781         0.267070         0.967681
 C        -1.907189         0.945456         0.053044
 C        -2.447435         0.996331         1.659850
 C        -0.961309         1.476398         1.947165
 C        -3.910853         0.776748         2.020262
 O        -4.281816        -0.465222         1.287162
 C        -3.021764        -1.447703         1.344877
 C        -1.859524        -0.568883         1.777552
 H         1.208890        -0.124767         1.050082
 H        -1.541677         1.923425        -0.353518
 H        -2.322206         0.309783        -0.713049
 H        -0.617031         2.404228         1.367593
 H        -0.537708         1.311350         2.971207
 H        -4.086994         0.647918         3.145885
 H        -4.546679         1.541967         1.576686
 H        -3.349913        -2.177308         2.008383
 H        -3.084290        -1.669462         0.266688
 H        -1.560802        -0.770584         2.783716
