19
Iteration:  4454charge 0 multiplicity 1
 O         0.142204        -0.270423         0.046337
 C        -0.972934         0.421157         0.722667
 C        -1.371427         1.958009         0.575223
 C        -2.288538         1.247014         1.741074
 C        -1.057644         0.641719         2.366001
 O        -3.546208         1.775551         2.059652
 C        -4.337139         1.576363         0.818426
 C        -3.582288         0.570150        -0.108812
 C        -2.464105         0.014755         0.844338
 H         0.568321        -0.835051         0.687252
 H        -0.701421         2.736718         0.958399
 H        -1.800606         2.188955        -0.404620
 H        -0.287748         1.283939         2.913862
 H        -1.278902        -0.268310         2.985892
 H        -5.278475         1.115423         1.270920
 H        -4.524338         2.429022         0.148556
 H        -4.310265        -0.239874        -0.555465
 H        -3.115877         1.097096        -0.943681
 H        -2.582737        -0.941526         1.367925
