19
Iteration:  1522
 O         0.065439        -0.197908         0.037970
 C        -0.925767         0.452584         0.765687
 C        -1.243278         1.938952         0.732165
 C        -2.342203         1.193937         1.713670
 C        -1.149298         0.556778         2.373554
 O        -3.545751         1.729798         2.069779
 C        -4.327594         1.653162         0.790080
 C        -3.593014         0.562747        -0.140964
 C        -2.404803        -0.022341         0.708594
 H         0.926752         0.013647         0.344371
 H        -0.698690         2.601942         1.357724
 H        -1.525557         2.214997        -0.346701
 H        -0.360968         1.030221         2.925832
 H        -1.297866        -0.409526         2.860595
 H        -5.345373         1.298910         1.134044
 H        -4.516176         2.670542         0.455820
 H        -4.403602        -0.175004        -0.172474
 H        -3.290112         0.994359        -1.169263
 H        -2.639202        -0.986147         1.203363
