19
Iteration:  4116charge 0 multiplicity 1
 O         0.190065        -0.185008         0.067905
 C        -0.935978         0.390722         0.770826
 C        -1.254346         1.891814         0.644348
 C        -2.279170         1.292314         1.719570
 C        -1.051369         0.622170         2.296343
 O        -3.555022         1.820691         2.001057
 C        -4.406031         1.531206         0.812525
 C        -3.717140         0.459568        -0.005573
 C        -2.463886         0.081059         0.783940
 H         0.599400        -0.797361         0.679657
 H        -0.469823         2.652917         0.956945
 H        -1.704564         2.295017        -0.282778
 H        -0.245655         1.229391         2.755823
 H        -1.330953        -0.294926         2.779357
 H        -5.463812         1.449116         1.264435
 H        -4.512957         2.391003         0.096945
 H        -4.419285        -0.488946        -0.360566
 H        -3.291961         0.880014        -0.959533
 H        -2.688945        -0.911858         1.335042
