19
Iteration:  2196
 O         0.242321        -0.231407         0.111022
 C        -0.913993         0.405975         0.724986
 C        -1.426557         1.919613         0.735282
 C        -2.353016         1.161139         1.704523
 C        -1.107242         0.507739         2.408618
 O        -3.531231         1.732145         2.076767
 C        -4.257359         1.708220         0.818002
 C        -3.605083         0.595669        -0.139605
 C        -2.528314         0.003029         0.720952
 H         0.181595         0.282651        -0.742019
 H        -0.699715         2.653879         1.232344
 H        -1.675591         2.338330        -0.305718
 H        -0.427283         1.199601         2.860914
 H        -1.297867        -0.514955         2.785993
 H        -5.339188         1.579134         1.032006
 H        -4.084534         2.686910         0.434674
 H        -4.491636        -0.023653        -0.565799
 H        -3.166951         0.806635        -1.124732
 H        -2.737768        -0.849760         1.358005
