19
Iteration:  4516charge 0 multiplicity 1
 O         0.149572        -0.251586         0.142240
 C        -0.868685         0.397530         0.752988
 C        -1.249371         1.974278         0.734868
 C        -2.248904         1.307517         1.554369
 C        -1.157321         0.568257         2.323030
 O        -3.475263         1.910285         1.938254
 C        -4.476159         1.464394         0.980809
 C        -3.672651         0.470950        -0.083023
 C        -2.384075         0.091689         0.718210
 H        -0.092441        -1.115458        -0.191458
 H        -0.649586         2.866876         1.091330
 H        -1.458511         2.271829        -0.321722
 H        -0.496208         1.195022         2.954473
 H        -1.389879        -0.372108         2.894418
 H        -5.271463         1.037059         1.648802
 H        -5.004948         2.306071         0.507686
 H        -4.243538        -0.423579        -0.283901
 H        -3.488475         1.013237        -1.037138
 H        -2.661566        -0.808591         1.305104
