19
Iteration:  1913charge 0 multiplicity 1
 O         0.129361        -0.182650         0.027243
 C        -0.902468         0.396364         0.754083
 C        -1.373110         1.865714         0.687814
 C        -2.346164         1.188405         1.674455
 C        -1.155154         0.488633         2.405622
 O        -3.523804         1.725924         2.074851
 C        -4.265250         1.700812         0.770549
 C        -3.629847         0.574516        -0.033659
 C        -2.467547         0.050297         0.777676
 H         0.915896         0.407873         0.182196
 H        -0.770373         2.638315         1.090805
 H        -1.517236         2.262168        -0.321833
 H        -0.296137         1.119588         2.856915
 H        -1.345069        -0.525647         2.860058
 H        -5.398768         1.515339         0.901052
 H        -4.147459         2.721705         0.185362
 H        -4.217857        -0.208094        -0.415198
 H        -3.320807         0.921122        -1.010153
 H        -2.585918        -0.932143         1.236683
