19
Iteration:   217charge 0 multiplicity 1
 O         0.243984        -0.025746         0.025862
 C        -0.914826         0.390735         0.832750
 C        -1.378750         1.795631         0.807450
 C        -2.389048         1.057764         1.774105
 C        -1.143035         0.405617         2.340543
 O        -3.584205         1.743185         2.070520
 C        -4.227828         1.824902         0.772027
 C        -3.641257         0.700074        -0.243781
 C        -2.480262        -0.111276         0.682223
 H         1.024207         0.002225         0.728667
 H        -0.748082         2.503184         1.440421
 H        -1.762598         2.244443        -0.182251
 H        -0.483120         0.865518         3.049608
 H        -1.431929        -0.546128         2.789504
 H        -5.305754         1.758495         1.043032
 H        -4.012418         2.743816         0.306815
 H        -4.473834         0.055330        -0.459803
 H        -3.208398         1.084231        -1.139237
 H        -2.719864        -1.156860         0.928521
