19
Iteration:  1629charge 0 multiplicity 1
 O         0.097571        -0.264637         0.121487
 C        -0.889812         0.486714         0.750038
 C        -1.349623         1.975659         0.654330
 C        -2.348192         1.172988         1.717550
 C        -1.049897         0.486624         2.320956
 O        -3.578210         1.691769         2.068069
 C        -4.335248         1.653608         0.840210
 C        -3.619881         0.575956        -0.147187
 C        -2.444110         0.063314         0.809646
 H         1.008557         0.021358         0.283761
 H        -0.645922         2.604507         1.154134
 H        -1.676525         2.431348        -0.360036
 H        -0.358778         1.260112         2.668958
 H        -1.318873        -0.391537         2.762591
 H        -5.278750         1.475758         1.086890
 H        -4.134658         2.555415         0.305364
 H        -4.199424        -0.203522        -0.659573
 H        -3.270485         1.261640        -0.911216
 H        -2.665326        -1.040186         0.931048
