19
Iteration:  4924
 O         0.061310        -0.309731         0.153825
 C        -0.957427         0.460202         0.691550
 C        -1.293029         1.957627         0.680582
 C        -2.219696         1.344200         1.659123
 C        -1.174640         0.559801         2.275230
 O        -3.420035         1.890994         1.980097
 C        -4.334213         1.459050         0.917030
 C        -3.691855         0.497548        -0.069513
 C        -2.451723         0.058492         0.725358
 H         0.866292         0.147676         0.551553
 H        -0.526388         2.608428         1.116167
 H        -1.663385         2.455616        -0.213552
 H        -0.368816         1.016284         2.831251
 H        -1.431473        -0.394257         2.740432
 H        -5.242062         0.981550         1.433391
 H        -4.754147         2.440805         0.505664
 H        -4.255219        -0.537145        -0.090139
 H        -3.538815         0.790075        -1.042921
 H        -2.538740        -1.051930         1.101826
