19
Iteration:  3091
 O         0.097816        -0.270907         0.105052
 C        -0.955796         0.382857         0.755278
 C        -1.204715         1.936175         0.678672
 C        -2.271403         1.331189         1.676772
 C        -1.091039         0.559574         2.377410
 O        -3.509737         1.934554         2.015376
 C        -4.466338         1.276550         0.915987
 C        -3.568206         0.735547        -0.225735
 C        -2.478586         0.116466         0.742481
 H         0.005565        -1.255227         0.290106
 H        -0.418631         2.479695         1.223207
 H        -1.400762         2.462051        -0.334670
 H        -0.336169         1.189189         2.902238
 H        -1.334010        -0.393721         2.927680
 H        -4.856058         0.247379         1.376365
 H        -5.408692         1.773197         0.517723
 H        -4.104508         0.018239        -0.879208
 H        -2.970368         1.348131        -0.777389
 H        -2.815428        -0.736675         1.407234
