19
Iteration:    39charge 0 multiplicity 1
 O        -0.022376        -0.360935         0.049504
 C        -0.904333         0.379403         0.843256
 C        -1.156849         1.941461         0.894103
 C        -2.266752         1.352050         1.654084
 C        -1.218382         0.465231         2.389877
 O        -3.589814         1.822922         1.979780
 C        -4.407014         1.191551         0.942636
 C        -3.466835         0.901542        -0.302352
 C        -2.413500         0.257745         0.612396
 H         0.942472        -0.473184         0.401960
 H        -0.418548         2.566111         1.429681
 H        -1.252452         2.580712        -0.060284
 H        -0.501916         1.003982         3.132793
 H        -1.654507        -0.528933         2.703579
 H        -4.825400         0.204014         1.257274
 H        -5.294326         1.831731         0.784865
 H        -3.890111         0.218550        -1.081388
 H        -3.114419         1.830200        -0.860184
 H        -2.862951        -0.694767         1.043633
