19
Iteration:  1059
 O         0.065565        -0.282228         0.160817
 C        -0.939741         0.432316         0.843914
 C        -1.230255         2.049439         0.780298
 C        -2.299132         1.270568         1.586946
 C        -1.019540         0.457066         2.323640
 O        -3.470347         1.766898         1.985184
 C        -4.457627         1.500266         0.846743
 C        -3.677015         0.591469        -0.174289
 C        -2.467386         0.089709         0.692771
 H         0.937919         0.168654         0.238759
 H        -0.534591         2.650863         1.279250
 H        -1.436015         2.313927        -0.260176
 H        -0.277692         0.942271         2.954863
 H        -1.334861        -0.493914         2.851628
 H        -5.335487         1.004606         1.316371
 H        -4.739640         2.478332         0.453268
 H        -4.196364        -0.221237        -0.606358
 H        -3.495423         1.282135        -1.001599
 H        -2.689477        -0.777711         1.269683
