19
Iteration:  2209
 O         0.127947        -0.168866         0.109459
 C        -0.891206         0.449663         0.830275
 C        -1.311392         1.883577         0.687543
 C        -2.306483         1.146746         1.706667
 C        -1.133787         0.501480         2.394173
 O        -3.538396         1.700678         2.109545
 C        -4.222707         1.782228         0.781082
 C        -3.690690         0.546752        -0.198140
 C        -2.455806         0.000900         0.721027
 H         0.344507         0.197970        -0.761126
 H        -0.681870         2.682076         1.110644
 H        -1.861310         2.162438        -0.197504
 H        -0.638251         1.107103         3.046226
 H        -1.260202        -0.517411         2.918588
 H        -5.267634         1.613247         1.027429
 H        -4.108458         2.722306         0.280492
 H        -4.375345        -0.434436        -0.158147
 H        -3.463712         1.030572        -1.172708
 H        -2.636280        -1.017075         0.973640
