19
Iteration:   110
 O         0.241923        -0.145356         0.136351
 C        -0.934957         0.380411         0.788645
 C        -1.214125         1.782978         0.763081
 C        -2.322256         1.214974         1.710848
 C        -1.266202         0.308492         2.417181
 O        -3.514993         1.845386         1.960519
 C        -4.472935         1.466002         0.931125
 C        -3.543226         0.827484        -0.255140
 C        -2.513070         0.128296         0.601338
 H         1.043991         0.471553         0.356916
 H        -0.358875         2.344670         1.199517
 H        -1.420332         2.269772        -0.117546
 H        -0.468135         0.727829         3.040834
 H        -1.531049        -0.713848         2.651984
 H        -5.194785         0.787883         1.450782
 H        -5.047083         2.402205         0.781032
 H        -4.114689         0.204131        -0.889282
 H        -3.138319         1.576714        -0.881159
 H        -2.864950        -0.778791         1.002631
