19
Iteration:  3081
 O         0.119571        -0.224548         0.151228
 C        -0.922634         0.375651         0.786915
 C        -1.170987         1.874751         0.667117
 C        -2.243219         1.326446         1.648829
 C        -1.048401         0.495024         2.402039
 O        -3.544100         1.943980         1.915923
 C        -4.480241         1.235015         1.012525
 C        -3.592168         0.724747        -0.253069
 C        -2.510160         0.176353         0.725733
 H        -0.137241        -1.214141         0.131542
 H        -0.547855         2.598915         1.227920
 H        -1.488189         2.350296        -0.338860
 H        -0.352839         1.150927         2.865733
 H        -1.257353        -0.401006         3.023772
 H        -4.947469         0.384778         1.609404
 H        -5.169782         2.098271         0.761344
 H        -4.074881         0.012819        -0.964748
 H        -3.324865         1.581352        -0.841793
 H        -2.952011        -0.761933         1.199783
