19
Iteration:  2266
 O         0.187010        -0.186376         0.178365
 C        -0.930511         0.408528         0.773531
 C        -1.339675         1.927881         0.771184
 C        -2.325983         1.188193         1.710825
 C        -1.041824         0.425929         2.339269
 O        -3.543066         1.786773         2.047312
 C        -4.258334         1.708652         0.772132
 C        -3.698782         0.552346        -0.088450
 C        -2.506627         0.031527         0.666873
 H         0.224592        -0.046516        -0.789832
 H        -0.718888         2.632265         1.259197
 H        -1.669559         2.350886        -0.153969
 H        -0.445649         1.122944         2.921935
 H        -1.083457        -0.554695         2.792373
 H        -5.297144         1.534845         1.034286
 H        -4.217423         2.678020         0.211089
 H        -4.325316        -0.371952        -0.366550
 H        -3.603718         0.950047        -1.145549
 H        -2.606970        -1.023977         0.927710
