19
Iteration:  1653charge 0 multiplicity 1
 O         0.079278        -0.279574         0.045184
 C        -0.967711         0.455000         0.773419
 C        -1.203196         1.987171         0.793638
 C        -2.286455         1.312034         1.670739
 C        -1.179943         0.520189         2.373109
 O        -3.559154         1.700867         2.047324
 C        -4.346219         1.567880         0.870225
 C        -3.646406         0.579901        -0.188750
 C        -2.352938         0.107130         0.700748
 H         0.877856        -0.097811         0.489600
 H        -0.391360         2.651649         1.148317
 H        -1.587795         2.223073        -0.267078
 H        -0.462718         1.168339         2.643090
 H        -1.319229        -0.471246         2.782592
 H        -5.156759         0.979852         1.190607
 H        -4.635776         2.480441         0.492131
 H        -4.301949        -0.284765        -0.154762
 H        -3.571881         0.891981        -1.296100
 H        -2.644908        -0.837641         1.206981
