19
Iteration:   861charge 0 multiplicity 1
 O         0.078652        -0.207436        -0.082239
 C        -0.902271         0.474734         0.752839
 C        -1.211336         1.993491         0.813469
 C        -2.275101         1.291769         1.755637
 C        -1.138275         0.473630         2.430745
 O        -3.618891         1.626718         2.014764
 C        -4.279062         1.685546         0.655012
 C        -3.692882         0.484751        -0.068821
 C        -2.462683         0.005631         0.828239
 H         0.901232         0.268222         0.305660
 H        -0.517682         2.571843         1.348535
 H        -1.557609         2.536105        -0.071408
 H        -0.513215         1.186377         2.909933
 H        -1.233938        -0.614731         2.803683
 H        -5.343316         1.778028         0.928661
 H        -4.023364         2.694090         0.260627
 H        -4.359176        -0.255915        -0.193022
 H        -3.284564         0.863024        -1.001314
 H        -2.558028        -0.864251         1.410189
