19
Iteration:  3928charge 0 multiplicity 1
 O         0.212800        -0.316249         0.225885
 C        -0.865300         0.366559         0.844721
 C        -1.203817         1.944567         0.564722
 C        -2.195557         1.324718         1.533845
 C        -1.143420         0.651221         2.342603
 O        -3.480424         1.800900         1.954374
 C        -4.514762         1.301731         1.038991
 C        -3.756287         0.705082        -0.111470
 C        -2.500742         0.173725         0.599180
 H         0.744394        -0.703116         1.018489
 H        -0.531815         2.727872         0.872171
 H        -1.510632         2.193878        -0.455298
 H        -0.390027         1.259304         2.764719
 H        -1.330697        -0.340560         2.767603
 H        -5.312504         0.650398         1.554017
 H        -5.242466         2.081153         0.810828
 H        -4.172153        -0.198845        -0.708499
 H        -3.586802         1.467947        -0.888061
 H        -2.883294        -0.704593         1.257789
