19
Iteration:  3330
 O         0.206319        -0.290667         0.252816
 C        -0.961733         0.424792         0.716450
 C        -1.106258         2.014982         0.765703
 C        -2.246186         1.341761         1.536885
 C        -1.177289         0.466897         2.320583
 O        -3.458333         1.962042         1.910869
 C        -4.473209         1.210000         1.138704
 C        -3.690971         0.701764        -0.221071
 C        -2.531171         0.135810         0.515308
 H         0.342860        -1.143252         0.714365
 H        -0.415702         2.543245         1.309174
 H        -1.298448         2.560702        -0.146681
 H        -0.425874         0.929793         2.948013
 H        -1.604328        -0.467286         2.850607
 H        -5.182583         0.488030         1.530113
 H        -5.190762         1.984588         0.935481
 H        -4.350749        -0.123510        -0.605727
 H        -3.578198         1.526077        -0.851866
 H        -2.677423        -0.784124         1.050353
