19
Iteration:  3098charge 0 multiplicity 1
 O         0.076456        -0.306661         0.068363
 C        -0.967656         0.422538         0.772876
 C        -1.190276         1.971196         0.713028
 C        -2.312754         1.332326         1.677428
 C        -1.147992         0.615899         2.335272
 O        -3.514741         1.903819         2.039745
 C        -4.423268         1.287914         0.846714
 C        -3.504740         0.708012        -0.153431
 C        -2.473006         0.075742         0.738864
 H         0.182247        -1.272948         0.369688
 H        -0.290068         2.427810         1.092997
 H        -1.538680         2.353472        -0.206914
 H        -0.251917         1.144845         2.850657
 H        -1.472798        -0.304620         2.822770
 H        -4.902470         0.427809         1.378661
 H        -5.299962         1.868184         0.687511
 H        -4.125535         0.008373        -0.708464
 H        -3.011416         1.449668        -0.850949
 H        -2.705316        -0.811816         1.295091
