19
Iteration:  3642charge 0 multiplicity 1
 O         0.192496        -0.185465         0.231804
 C        -0.933933         0.322185         0.800944
 C        -1.253369         1.898316         0.665747
 C        -2.280803         1.343909         1.660400
 C        -1.007363         0.511974         2.317096
 O        -3.538252         1.917376         1.973397
 C        -4.435625         1.430637         0.948604
 C        -3.672574         0.624739        -0.194107
 C        -2.513300         0.080248         0.690377
 H         0.111798        -0.907112        -0.348887
 H        -0.433317         2.479521         1.146022
 H        -1.428202         2.296693        -0.362136
 H        -0.161788         1.090988         2.817576
 H        -1.318333        -0.475917         2.801486
 H        -5.125885         0.671296         1.423927
 H        -4.922599         2.327936         0.525605
 H        -4.245706        -0.253931        -0.454348
 H        -3.485870         1.047256        -1.175159
 H        -2.953929        -0.722438         1.312532
