19
Iteration:  1825
 O        -0.012737        -0.208024         0.057534
 C        -0.938359         0.404754         0.851282
 C        -1.173756         1.915324         0.731809
 C        -2.293774         1.261600         1.655740
 C        -1.083253         0.541472         2.360664
 O        -3.520389         1.742756         2.018973
 C        -4.378509         1.457853         0.848243
 C        -3.592294         0.639831        -0.165224
 C        -2.469731         0.123938         0.736340
 H         0.944559        -0.109781         0.332589
 H        -0.339554         2.444919         0.978975
 H        -1.519426         2.197958        -0.294050
 H        -0.329820         1.173068         2.884903
 H        -1.330809        -0.317700         2.912637
 H        -5.339996         0.989308         1.166303
 H        -4.888303         2.443660         0.585662
 H        -4.214531        -0.107723        -0.578909
 H        -3.236855         1.223605        -0.982342
 H        -2.728374        -0.835176         1.177040
