19
Iteration:  4142
 O         0.077848        -0.132307         0.046547
 C        -0.913304         0.430218         0.838792
 C        -1.183275         1.949007         0.668652
 C        -2.308457         1.296167         1.649920
 C        -1.061347         0.563058         2.375813
 O        -3.494281         1.949576         1.945326
 C        -4.397722         1.441830         0.857629
 C        -3.674331         0.409261        -0.101615
 C        -2.466345         0.029476         0.789836
 H         0.035159        -1.112200         0.162475
 H        -0.358277         2.546924         1.200453
 H        -1.583603         2.306565        -0.311532
 H        -0.272016         1.185066         2.928343
 H        -1.412996        -0.406982         2.930982
 H        -5.126223         0.907085         1.378964
 H        -4.981186         2.244618         0.328414
 H        -4.340841        -0.329088        -0.176008
 H        -3.228176         0.751943        -1.020012
 H        -2.672307        -0.786495         1.387139
