19
Iteration:  2463charge 0 multiplicity 1
 O         0.149640        -0.309647         0.168598
 C        -0.872372         0.384250         0.837725
 C        -1.221097         1.980315         0.655885
 C        -2.246228         1.241091         1.668375
 C        -1.107280         0.534422         2.374877
 O        -3.568666         1.755864         2.066725
 C        -4.491111         1.465311         0.956711
 C        -3.610123         0.728823        -0.247550
 C        -2.442821         0.136285         0.673676
 H        -0.076458        -0.322131        -0.828379
 H        -0.257752         2.423328         0.971475
 H        -1.609784         2.256239        -0.384735
 H        -0.368177         1.144104         2.804996
 H        -1.262607        -0.338074         3.151513
 H        -5.352219         0.861220         1.190630
 H        -4.833838         2.459135         0.603106
 H        -4.103432        -0.179835        -0.738944
 H        -3.334777         1.488565        -0.948657
 H        -2.864060        -0.783531         1.022384
