19
Iteration:  2803charge 0 multiplicity 1
 O         0.051116        -0.295138         0.089066
 C        -0.887098         0.417717         0.762533
 C        -1.217313         1.930093         0.715122
 C        -2.303735         1.247036         1.679556
 C        -1.131960         0.531110         2.388155
 O        -3.518596         1.797750         2.023089
 C        -4.504785         1.511624         0.881040
 C        -3.550049         0.607936        -0.181470
 C        -2.420469         0.089094         0.737996
 H         0.664330         0.383703        -0.119088
 H        -0.432139         2.472002         1.317267
 H        -1.317635         2.335586        -0.295704
 H        -0.344957         1.173528         2.779245
 H        -1.311459        -0.401198         2.840566
 H        -5.270221         0.968753         1.395888
 H        -4.787282         2.508179         0.525974
 H        -4.212955        -0.114732        -0.596597
 H        -3.171113         1.240936        -1.008147
 H        -2.820095        -0.833670         1.205603
