19
Iteration:  1907
 O         0.140032        -0.159760         0.038542
 C        -0.952415         0.375573         0.729797
 C        -1.306520         1.806817         0.674294
 C        -2.368253         1.229354         1.677887
 C        -1.171101         0.508299         2.372716
 O        -3.522494         1.705779         2.090595
 C        -4.283295         1.699279         0.750603
 C        -3.618854         0.591807        -0.056802
 C        -2.452602         0.071411         0.813168
 H         0.984647         0.407991         0.128561
 H        -0.826601         2.661509         1.305482
 H        -1.677568         2.123758        -0.332128
 H        -0.365906         1.071976         2.752612
 H        -1.198540        -0.481029         2.909274
 H        -5.246849         1.296727         0.918861
 H        -4.079964         2.638345         0.333614
 H        -4.495468        -0.122478        -0.326552
 H        -3.088144         0.966693        -0.982961
 H        -2.718639        -0.898958         1.322121
