19
Iteration:  4441charge 0 multiplicity 1
 O         0.062478        -0.211434         0.081247
 C        -0.954539         0.475597         0.750715
 C        -1.292222         1.915184         0.658077
 C        -2.306757         1.233807         1.708055
 C        -1.035581         0.621972         2.370365
 O        -3.516847         1.822085         2.078988
 C        -4.331791         1.587761         0.795312
 C        -3.619452         0.444474        -0.142709
 C        -2.443453         0.020028         0.711952
 H         0.451578        -0.761686         0.823519
 H        -0.426324         2.554255         1.069985
 H        -1.849381         2.334062        -0.228773
 H        -0.308982         1.440236         2.680473
 H        -1.078987        -0.346411         3.004260
 H        -5.385169         1.201941         1.122213
 H        -4.499013         2.640423         0.436329
 H        -4.346883        -0.413768        -0.189236
 H        -3.469579         0.704638        -1.099258
 H        -2.675618        -0.909101         1.225290
