19
Iteration:  4453
 O         0.141779        -0.270750         0.046145
 C        -0.988070         0.438369         0.729091
 C        -1.364498         1.949086         0.580779
 C        -2.281287         1.236455         1.742664
 C        -1.056659         0.638782         2.363415
 O        -3.545669         1.780004         2.065823
 C        -4.336907         1.583186         0.813134
 C        -3.582610         0.561610        -0.122171
 C        -2.458295         0.011256         0.832679
 H         0.535473        -0.804803         0.697454
 H        -0.665530         2.749195         0.967532
 H        -1.804881         2.219041        -0.410696
 H        -0.287375         1.303267         2.909132
 H        -1.267543        -0.276357         3.025226
 H        -5.288409         1.112469         1.290800
 H        -4.548238         2.434711         0.128110
 H        -4.325941        -0.247102        -0.509842
 H        -3.167788         1.050710        -0.919542
 H        -2.562111        -0.916011         1.386240
