19
Iteration:  1596
 O         0.098811        -0.185494         0.052075
 C        -0.982235         0.380332         0.808220
 C        -1.419940         1.894110         0.686475
 C        -2.266438         1.212166         1.717811
 C        -1.128263         0.553786         2.436719
 O        -3.509584         1.632962         2.093826
 C        -4.198991         1.669225         0.780804
 C        -3.627243         0.595784        -0.231686
 C        -2.478595         0.047196         0.764134
 H         0.842662         0.523608         0.002054
 H        -0.629685         2.516272         1.067982
 H        -1.853746         2.245051        -0.304093
 H        -0.303492         1.183853         2.835068
 H        -1.306035        -0.105490         3.200911
 H        -5.186318         1.667224         1.044503
 H        -4.083830         2.660880         0.397090
 H        -4.264304        -0.289859        -0.395949
 H        -3.433204         1.050520        -1.201702
 H        -2.657399        -1.057996         1.107231
