19
Iteration:    21charge 0 multiplicity 1
 O         0.034289        -0.281933         0.009869
 C        -0.942718         0.423744         0.820886
 C        -1.096180         1.890648         0.780319
 C        -2.345067         1.207088         1.750899
 C        -1.132025         0.458479         2.453101
 O        -3.613931         1.814874         1.972386
 C        -4.482707         1.326352         0.849416
 C        -3.432517         0.909303        -0.225930
 C        -2.464792         0.120646         0.681285
 H         0.870075        -0.195595         0.587355
 H        -0.355436         2.491449         1.262169
 H        -1.361566         2.398434        -0.224091
 H        -0.432901         1.090024         2.914557
 H        -1.383643        -0.473653         3.042114
 H        -5.113747         0.438597         1.185440
 H        -5.159418         2.092475         0.503794
 H        -3.853106         0.424238        -1.097335
 H        -3.046080         1.809516        -0.571768
 H        -2.810143        -0.843498         0.990858
