19
Iteration:  2593
 O         0.214110        -0.265107         0.182876
 C        -0.902986         0.451607         0.784573
 C        -1.377443         1.897107         0.656024
 C        -2.369735         1.190626         1.764653
 C        -0.992920         0.546571         2.266734
 O        -3.604556         1.693392         2.079348
 C        -4.303577         1.729654         0.803462
 C        -3.643905         0.637213        -0.118980
 C        -2.488039        -0.032173         0.714169
 H         0.419171        -0.095543        -0.780168
 H        -0.639595         2.565176         1.218021
 H        -1.996637         2.454935        -0.177827
 H        -0.418955         1.227012         2.743424
 H        -1.316562        -0.408107         2.831071
 H        -5.418877         1.647178         1.018371
 H        -3.941949         2.662662         0.379038
 H        -4.399146        -0.168732        -0.444332
 H        -3.279831         1.060557        -1.030176
 H        -2.480884        -1.056945         1.243637
