19
Iteration:  2300
 O         0.208693        -0.217699         0.159134
 C        -0.916971         0.389227         0.740221
 C        -1.259898         1.926680         0.630615
 C        -2.301298         1.267683         1.648659
 C        -1.151756         0.500991         2.362408
 O        -3.549476         1.708810         2.137121
 C        -4.297624         1.581617         0.824149
 C        -3.590897         0.615929        -0.161360
 C        -2.552900         0.069938         0.741729
 H        -0.117600        -0.393516        -0.703694
 H        -0.627308         2.584884         1.154509
 H        -1.604528         2.244638        -0.342336
 H        -0.586495         1.156834         3.045189
 H        -1.428101        -0.370199         2.883776
 H        -5.292402         1.313413         1.184917
 H        -4.331290         2.648469         0.455298
 H        -4.326878        -0.075449        -0.683623
 H        -3.198046         1.521961        -0.707261
 H        -2.835464        -0.923379         1.177580
