19
Iteration:  1531charge 0 multiplicity 1
 O         0.027088        -0.205169         0.045394
 C        -0.874855         0.507122         0.823485
 C        -1.288057         1.983506         0.743673
 C        -2.341228         1.179244         1.660452
 C        -1.070515         0.463478         2.376944
 O        -3.500013         1.771314         2.061510
 C        -4.335053         1.609159         0.792396
 C        -3.679295         0.522757        -0.177118
 C        -2.424744         0.000110         0.767406
 H         0.896962         0.101536         0.254198
 H        -0.606743         2.568166         1.377438
 H        -1.482293         2.632598        -0.198531
 H        -0.460867         1.114913         3.085665
 H        -1.335104        -0.439213         2.837747
 H        -5.336968         1.505374         1.028660
 H        -4.229175         2.573903         0.304666
 H        -4.431374        -0.277610        -0.492821
 H        -3.334420         0.862011        -1.200461
 H        -2.616909        -1.092083         1.080474
