19
Iteration:  2023charge 0 multiplicity 1
 O         0.129078        -0.340678         0.115607
 C        -0.892208         0.418638         0.739851
 C        -1.203589         1.986960         0.711112
 C        -2.258225         1.252946         1.683563
 C        -1.121762         0.455893         2.309771
 O        -3.555058         1.875411         2.052822
 C        -4.519893         1.442195         0.853065
 C        -3.574431         0.642492        -0.179908
 C        -2.469460         0.115629         0.743568
 H         0.796417         0.392931         0.007033
 H        -0.549228         2.613338         1.287581
 H        -1.662922         2.493459        -0.133658
 H        -0.422309         0.951638         2.982416
 H        -1.376887        -0.558557         2.844773
 H        -5.331972         0.839176         1.352391
 H        -4.697209         2.483801         0.658900
 H        -4.147951        -0.175930        -0.490416
 H        -3.240400         1.321569        -0.985038
 H        -2.741924        -0.901577         1.080448
