19
Iteration:  2960
 O         0.003522        -0.178854         0.095650
 C        -0.943836         0.459286         0.765678
 C        -1.184435         1.948504         0.647194
 C        -2.277415         1.316824         1.716453
 C        -1.102089         0.551249         2.427861
 O        -3.538595         1.695090         2.049615
 C        -4.345599         1.555015         0.866457
 C        -3.586161         0.562132        -0.202229
 C        -2.412730         0.057125         0.719174
 H        -0.114513        -1.113948         0.251531
 H        -0.429688         2.614799         1.072799
 H        -1.707968         2.150514        -0.332901
 H        -0.453043         1.197398         2.910304
 H        -1.198155        -0.374835         2.922376
 H        -5.322333         1.098645         1.084060
 H        -4.580692         2.578645         0.430833
 H        -4.179772        -0.287018        -0.634318
 H        -3.251593         1.155987        -0.999845
 H        -2.636871        -0.879979         1.319192
