19
Iteration:  1246charge 0 multiplicity 1
 O        -0.004279        -0.306567         0.073973
 C        -0.914713         0.447729         0.766213
 C        -1.316302         2.009428         0.743654
 C        -2.275012         1.292995         1.634257
 C        -1.192406         0.533586         2.394712
 O        -3.547195         1.735093         2.113153
 C        -4.322743         1.514755         0.866018
 C        -3.491326         0.565624        -0.193297
 C        -2.368838         0.049737         0.674751
 H         0.746597         0.218713        -0.149232
 H        -0.541149         2.653554         1.239590
 H        -1.651745         2.300795        -0.224564
 H        -0.362260         1.180251         2.993135
 H        -1.625133        -0.286601         2.957917
 H        -5.409387         1.209452         1.195750
 H        -4.470940         2.554297         0.502099
 H        -4.223196        -0.205798        -0.694560
 H        -3.197174         1.223267        -1.015509
 H        -2.533443        -0.883133         1.201729
