19
Iteration:  4967
 O         0.235168        -0.312119         0.128794
 C        -0.935781         0.324856         0.788440
 C        -1.224615         1.810995         0.597126
 C        -2.306874         1.265278         1.679177
 C        -1.056184         0.691418         2.341853
 O        -3.518353         1.823818         2.033663
 C        -4.412217         1.473676         0.916746
 C        -3.639992         0.644637        -0.112744
 C        -2.545170         0.088914         0.737482
 H         0.176119         0.117587        -0.739723
 H        -0.545220         2.584631         0.890160
 H        -1.528070         2.242366        -0.342129
 H        -0.533322         1.437366         2.847424
 H        -1.304347        -0.089653         3.039673
 H        -5.214995         0.763522         1.470632
 H        -5.083442         2.391974         0.513617
 H        -4.483335         0.031793        -0.595915
 H        -3.275145         1.339277        -0.790908
 H        -2.880896        -0.814896         1.369013
