19
Iteration:  3564charge 0 multiplicity 1
 O         0.036573        -0.351216         0.119662
 C        -0.920244         0.437460         0.751550
 C        -1.183223         1.913006         0.698357
 C        -2.255347         1.374442         1.641814
 C        -1.082365         0.543179         2.302382
 O        -3.634213         1.886089         1.930370
 C        -4.474484         1.302448         0.984358
 C        -3.582804         0.728685        -0.146830
 C        -2.369524         0.156520         0.759735
 H         0.549177        -0.728712         0.844535
 H        -0.345311         2.536343         1.008763
 H        -1.441712         2.318544        -0.316139
 H        -0.152127         1.051635         2.826907
 H        -1.333919        -0.429962         2.831709
 H        -4.994914         0.334947         1.301228
 H        -5.352398         1.981335         0.664446
 H        -3.958837        -0.055960        -0.765958
 H        -3.015063         1.557163        -0.727104
 H        -2.648991        -0.787734         1.262227
