19
Iteration:  3807
 O         0.049805        -0.363800         0.238493
 C        -0.894845         0.509562         0.764803
 C        -1.359252         1.926044         0.656086
 C        -2.331567         1.265369         1.687893
 C        -1.011637         0.676814         2.322871
 O        -3.551477         1.804307         2.066482
 C        -4.337408         1.506803         0.840771
 C        -3.573787         0.524454        -0.121757
 C        -2.373996         0.064561         0.688851
 H         0.095308        -0.335075        -0.738113
 H        -0.799677         2.811539         0.974272
 H        -1.837015         2.129764        -0.277403
 H        -0.284635         1.403707         2.627941
 H        -1.242148        -0.280290         2.833726
 H        -5.286320         1.060647         1.295562
 H        -4.530046         2.486688         0.425756
 H        -4.216853        -0.345024        -0.491734
 H        -3.415356         1.072156        -1.053934
 H        -2.527892        -0.941514         1.097151
