19
Iteration:   308
 O         0.143113        -0.187748         0.107230
 C        -0.990388         0.394928         0.746120
 C        -1.236988         1.915359         0.784339
 C        -2.302003         1.325596         1.760750
 C        -1.155211         0.419369         2.373683
 O        -3.580175         1.769545         2.055962
 C        -4.411873         1.411891         0.833535
 C        -3.402249         0.749332        -0.250273
 C        -2.492377         0.074414         0.690410
 H        -0.098785        -0.664586        -0.688972
 H        -0.491977         2.682634         1.251864
 H        -1.579063         2.340051        -0.168050
 H        -0.281703         0.786545         2.946201
 H        -1.509900        -0.390366         3.011945
 H        -5.229144         0.863153         1.309825
 H        -4.787965         2.400867         0.526803
 H        -3.961584         0.117467        -0.895301
 H        -2.900593         1.478408        -0.882634
 H        -2.935435        -0.617031         1.351883
