19
Iteration:  4425
 O         0.124012        -0.182184         0.071540
 C        -0.961751         0.431371         0.837329
 C        -1.281405         1.964731         0.711296
 C        -2.258588         1.276147         1.647952
 C        -1.054049         0.588522         2.308344
 O        -3.532671         1.766415         1.989370
 C        -4.308163         1.578732         0.813901
 C        -3.759706         0.415710        -0.046504
 C        -2.443327         0.083088         0.745787
 H         0.547816        -0.945135         0.442680
 H        -0.730645         2.729210         1.216950
 H        -1.469329         2.292318        -0.297620
 H        -0.334849         1.145945         2.836234
 H        -1.312919        -0.291871         2.855384
 H        -5.290893         1.533913         1.172153
 H        -4.231360         2.369786         0.053379
 H        -4.392427        -0.441720        -0.018199
 H        -3.613995         0.894629        -1.130834
 H        -2.493986        -0.893541         1.309197
