19
Iteration:   949charge 0 multiplicity 1
 O         0.118317        -0.228641         0.175771
 C        -0.897794         0.410784         0.731565
 C        -1.124421         1.900509         0.666365
 C        -2.255352         1.224782         1.616018
 C        -1.142209         0.495906         2.447737
 O        -3.489447         1.773687         1.985405
 C        -4.461063         1.417062         0.963682
 C        -3.713275         0.727653        -0.172388
 C        -2.492745         0.123474         0.605079
 H         0.999224         0.147004         0.439096
 H        -0.557781         2.577771         1.195207
 H        -1.497799         2.361344        -0.283861
 H        -0.451073         1.179847         2.960455
 H        -1.439436        -0.501955         2.998128
 H        -5.229990         0.681592         1.299433
 H        -4.993311         2.323511         0.656906
 H        -4.243271        -0.031704        -0.625114
 H        -3.422260         1.506716        -0.914599
 H        -2.845820        -0.774214         1.029210
