19
Iteration:  1077charge 0 multiplicity 1
 O         0.155811        -0.306164         0.150806
 C        -0.900873         0.440741         0.697165
 C        -1.222896         1.882799         0.714957
 C        -2.296842         1.247726         1.727630
 C        -1.114653         0.522069         2.325602
 O        -3.639264         1.782958         2.047451
 C        -4.417249         1.584281         0.868971
 C        -3.622188         0.601851        -0.111946
 C        -2.415237         0.082014         0.669626
 H         0.917532         0.310503         0.096427
 H        -0.506898         2.512427         1.310708
 H        -1.725695         2.403968        -0.164349
 H        -0.352663         1.153010         2.747807
 H        -1.174739        -0.394613         2.935744
 H        -5.414140         1.210390         1.077169
 H        -4.539707         2.487715         0.238064
 H        -4.330559        -0.131616        -0.515395
 H        -3.304110         1.229112        -1.038028
 H        -2.622536        -0.958184         1.073621
