19
Iteration:  1368
 O         0.044365        -0.331697         0.185167
 C        -0.951724         0.483069         0.762424
 C        -1.132358         2.019307         0.664473
 C        -2.227682         1.302609         1.681986
 C        -1.124643         0.474335         2.372570
 O        -3.548055         1.813509         2.040343
 C        -4.474778         1.312941         0.917357
 C        -3.595894         0.715007        -0.212205
 C        -2.453758         0.091727         0.651133
 H         0.942862         0.081433         0.070291
 H        -0.249591         2.579836         0.983952
 H        -1.634776         2.426920        -0.243684
 H        -0.255533         0.961894         2.905450
 H        -1.468235        -0.418464         2.785454
 H        -5.355936         0.809834         1.479921
 H        -4.983570         2.263604         0.573305
 H        -4.025903        -0.152819        -0.863114
 H        -3.380789         1.484419        -0.990554
 H        -2.667555        -0.740605         1.274792
