19
Iteration:   793
 O         0.097207        -0.203464         0.147713
 C        -0.936035         0.355959         0.825774
 C        -1.229103         1.896312         0.661480
 C        -2.322731         1.250514         1.675301
 C        -1.085085         0.545204         2.346326
 O        -3.604778         1.594050         2.119392
 C        -4.332383         1.652048         0.765384
 C        -3.637531         0.646857        -0.155404
 C        -2.417391         0.092114         0.698274
 H         0.738603         0.518123        -0.087429
 H        -0.467244         2.632546         1.037576
 H        -1.560554         2.087600        -0.287421
 H        -0.276182         1.249328         2.733903
 H        -1.142570        -0.452683         2.817384
 H        -5.352303         1.370945         1.045433
 H        -4.418099         2.716342         0.441160
 H        -4.373315        -0.160941        -0.331283
 H        -3.385024         1.124722        -1.053010
 H        -2.787638        -0.818689         1.244793
