19
Iteration:  1959
 O         0.036505        -0.284777         0.037530
 C        -0.932184         0.436987         0.757126
 C        -1.233889         2.022596         0.740203
 C        -2.352613         1.266453         1.720391
 C        -1.051063         0.517650         2.311964
 O        -3.591095         1.666723         2.034098
 C        -4.319359         1.614060         0.798650
 C        -3.591880         0.556410        -0.053739
 C        -2.417966         0.063138         0.755044
 H         1.007352         0.013367         0.169398
 H        -0.595839         2.709369         1.218109
 H        -1.639875         2.586906        -0.056374
 H        -0.510970         1.111758         2.991446
 H        -1.467384        -0.462205         2.852370
 H        -5.450830         1.518578         0.913167
 H        -4.022818         2.556442         0.144524
 H        -4.320709        -0.140429        -0.371985
 H        -3.335345         0.956745        -1.045831
 H        -2.672065        -0.902292         1.316895
