19
Iteration:  3985charge 0 multiplicity 1
 O         0.053998        -0.173993        -0.002163
 C        -0.884993         0.383359         0.903352
 C        -1.271296         1.923749         0.671056
 C        -2.202558         1.338007         1.694590
 C        -0.994504         0.616899         2.405143
 O        -3.603013         1.853953         1.879385
 C        -4.455328         1.421581         0.857865
 C        -3.618623         0.512109        -0.129566
 C        -2.421984         0.093518         0.858721
 H        -0.090032        -1.096445        -0.011032
 H        -0.489589         2.474314         1.198062
 H        -1.627646         2.089980        -0.382301
 H        -0.079342         1.142666         2.862225
 H        -1.339641        -0.199341         3.072230
 H        -5.312080         0.809030         1.350255
 H        -4.701462         2.348057         0.340511
 H        -4.029326        -0.422787        -0.462723
 H        -3.272209         1.136287        -0.911898
 H        -2.747497        -0.822915         1.403435
