19
Iteration:  4352
 O         0.170670        -0.222983         0.128494
 C        -0.939829         0.513044         0.681197
 C        -1.420398         1.903582         0.555509
 C        -2.333355         1.201990         1.797216
 C        -1.061206         0.660856         2.360967
 O        -3.622663         1.726932         2.093569
 C        -4.234315         1.616252         0.771416
 C        -3.565938         0.515021        -0.071794
 C        -2.449679         0.005726         0.824349
 H        -0.154906        -1.052622        -0.366558
 H        -0.569658         2.572252         1.008715
 H        -1.765710         2.363272        -0.462179
 H        -0.235465         1.383214         2.690925
 H        -1.029693        -0.356052         2.979765
 H        -5.357097         1.462134         0.762398
 H        -4.131144         2.634080         0.247148
 H        -4.230362        -0.323832        -0.181900
 H        -3.278902         0.966763        -0.964115
 H        -2.623782        -0.912809         1.349681
