19
Iteration:  2902
 O         0.193237        -0.019516         0.132602
 C        -1.012489         0.431101         0.822707
 C        -1.327442         1.857414         0.614182
 C        -2.313450         1.181549         1.663457
 C        -1.102079         0.450069         2.328811
 O        -3.503830         1.791986         2.043774
 C        -4.241611         1.653687         0.777964
 C        -3.727864         0.531873        -0.050454
 C        -2.435519        -0.021339         0.792414
 H        -0.130950        -0.926805        -0.081141
 H        -0.805464         2.748140         1.079118
 H        -1.543719         2.126442        -0.424605
 H        -0.365398         1.107799         2.940247
 H        -1.235928        -0.500922         2.812034
 H        -5.271532         1.655632         1.046971
 H        -4.008606         2.682218         0.357380
 H        -4.327629        -0.304451        -0.199531
 H        -3.468094         0.945731        -1.055132
 H        -2.608130        -1.102170         0.953624
