19
Iteration:  1944
 O        -0.001045        -0.261398         0.092323
 C        -0.943788         0.487066         0.743413
 C        -1.323550         1.983333         0.800301
 C        -2.265280         1.202768         1.722520
 C        -1.094298         0.507348         2.363793
 O        -3.529208         1.706108         2.096230
 C        -4.232163         1.658150         0.721683
 C        -3.667322         0.481501        -0.158329
 C        -2.451669         0.102654         0.690125
 H         0.799373         0.268761         0.233193
 H        -0.521899         2.615248         1.320958
 H        -1.544111         2.387298        -0.237840
 H        -0.192399         1.163561         2.715157
 H        -1.160983        -0.447451         2.819364
 H        -5.281368         1.496573         1.016375
 H        -4.261635         2.660200         0.341058
 H        -4.270308        -0.454099        -0.129655
 H        -3.496947         0.773791        -1.191274
 H        -2.521780        -0.862798         1.129727
