19
Iteration:  3489charge 0 multiplicity 1
 O         0.277501        -0.216096         0.116673
 C        -0.863223         0.417936         0.743540
 C        -1.312503         1.866602         0.697340
 C        -2.319574         1.224494         1.741589
 C        -1.096962         0.508965         2.343182
 O        -3.565234         1.770135         2.014155
 C        -4.315546         1.720711         0.806352
 C        -3.669483         0.489837        -0.133615
 C        -2.584120         0.016165         0.837954
 H         0.560591         0.290411        -0.692308
 H        -0.610672         2.634235         1.127176
 H        -1.932949         2.148894        -0.236009
 H        -0.307396         1.179212         2.834175
 H        -1.383020        -0.362296         2.965747
 H        -5.390799         1.535184         1.002230
 H        -4.396022         2.620352         0.107874
 H        -4.527869        -0.149698        -0.293779
 H        -3.242293         0.947119        -1.086291
 H        -2.886527        -0.855397         1.383345
