19
Iteration:  4909charge 0 multiplicity 1
 O         0.067455        -0.283171         0.048101
 C        -0.911554         0.417105         0.739210
 C        -1.210776         2.005457         0.642852
 C        -2.310985         1.255776         1.623166
 C        -1.064746         0.559607         2.391291
 O        -3.497088         1.898048         2.021612
 C        -4.416241         1.526562         0.920524
 C        -3.662557         0.422277        -0.082281
 C        -2.435526         0.071932         0.717312
 H         0.862725        -0.470149         0.645702
 H        -0.553978         2.591256         1.252797
 H        -1.643023         2.358408        -0.314686
 H        -0.367766         1.266788         2.867998
 H        -1.293993        -0.321441         2.958923
 H        -5.270989         0.990275         1.418053
 H        -4.773992         2.417925         0.256215
 H        -4.388063        -0.260099        -0.306696
 H        -3.483684         0.929982        -1.123397
 H        -2.727544        -0.647537         1.431514
