19
Iteration:  4066charge 0 multiplicity 1
 O         0.211689        -0.200441         0.159759
 C        -0.976906         0.413290         0.707417
 C        -1.370581         1.910223         0.527805
 C        -2.272341         1.275149         1.692541
 C        -1.015412         0.709018         2.282837
 O        -3.633880         1.659825         2.131619
 C        -4.263837         1.673081         0.820492
 C        -3.700884         0.505682        -0.058734
 C        -2.470944        -0.080421         0.778609
 H         0.440320        -0.835638         0.811516
 H        -0.675444         2.665856         0.897995
 H        -1.687801         2.357967        -0.387873
 H        -0.380617         1.574038         2.479527
 H        -1.034342        -0.130684         3.034861
 H        -5.278064         1.670792         0.860391
 H        -4.003526         2.577915         0.269205
 H        -4.361896        -0.224352        -0.300824
 H        -3.388034         0.832448        -1.053769
 H        -2.691717        -0.920024         1.353226
