19
Iteration:  1786charge 0 multiplicity 1
 O         0.086892        -0.289296         0.086928
 C        -0.907632         0.443322         0.812045
 C        -1.302995         1.963294         0.730167
 C        -2.308707         1.334132         1.678571
 C        -1.133333         0.445537         2.310306
 O        -3.456621         1.857974         1.951907
 C        -4.441844         1.388502         0.941620
 C        -3.630357         0.664965        -0.115488
 C        -2.431574         0.103226         0.638600
 H         0.827515        -0.114448         0.629251
 H        -0.355989         2.439293         1.283708
 H        -1.632500         2.415884        -0.202387
 H        -0.470438         1.093658         2.841951
 H        -1.255514        -0.618069         2.872249
 H        -5.023861         0.614258         1.433750
 H        -4.869518         2.254669         0.459620
 H        -4.210054        -0.144041        -0.650425
 H        -3.185387         1.458419        -0.843591
 H        -2.698859        -0.814943         1.231108
