19
Iteration:  3288charge 0 multiplicity 1
 O         0.172825        -0.170800         0.180421
 C        -0.926896         0.360671         0.815845
 C        -1.155728         1.838882         0.642957
 C        -2.254246         1.314046         1.636256
 C        -1.114443         0.542260         2.386798
 O        -3.504629         1.873312         1.955061
 C        -4.485835         1.319781         1.013270
 C        -3.621494         0.748092        -0.206144
 C        -2.534229         0.111044         0.626854
 H        -0.078749        -1.064980         0.109446
 H        -0.455881         2.481514         1.150700
 H        -1.327717         2.284849        -0.310829
 H        -0.233444         0.977004         2.872577
 H        -1.473345        -0.333891         3.061625
 H        -5.071486         0.569896         1.682487
 H        -5.244441         2.029813         0.677199
 H        -4.180730         0.114932        -0.865034
 H        -3.184055         1.506837        -0.845570
 H        -2.984264        -0.816345         0.941635
