19
Iteration:   188charge 0 multiplicity 1
 O         0.015712        -0.153842         0.031030
 C        -0.968516         0.492257         0.776353
 C        -1.275828         1.963822         0.850160
 C        -2.281717         1.152091         1.804610
 C        -1.181413         0.385114         2.420548
 O        -3.626463         1.579639         2.045142
 C        -4.180925         1.738875         0.727686
 C        -3.571275         0.607920        -0.257502
 C        -2.412942         0.084752         0.675595
 H         0.842512         0.212210         0.406133
 H        -0.487808         2.581111         1.381548
 H        -1.710143         2.365604         0.024448
 H        -0.430248         0.895393         3.115861
 H        -1.472317        -0.580638         2.816128
 H        -5.259822         1.756341         0.926015
 H        -3.797063         2.736374         0.327141
 H        -4.270480        -0.191254        -0.351000
 H        -3.264332         1.001952        -1.239838
 H        -2.581148        -0.899777         1.036756
