19
Iteration:  2179
 O         0.170181        -0.180442         0.200356
 C        -0.991766         0.361129         0.734255
 C        -1.322259         1.894921         0.718541
 C        -2.268090         1.221182         1.707033
 C        -1.057798         0.476348         2.250104
 O        -3.598103         1.725353         2.077509
 C        -4.317726         1.651696         0.798370
 C        -3.590097         0.662126        -0.132641
 C        -2.495653         0.024315         0.774282
 H         0.305223         0.000675        -0.800406
 H        -0.586615         2.491173         1.171142
 H        -1.813219         2.311729        -0.094541
 H        -0.231748         1.081151         2.773152
 H        -1.203880        -0.432413         2.919936
 H        -5.338078         1.392651         1.083328
 H        -4.440773         2.678362         0.300737
 H        -4.209253        -0.171602        -0.521359
 H        -3.020658         1.222843        -0.929824
 H        -2.759029        -1.001776         1.097172
