19
Iteration:  2037charge 0 multiplicity 1
 O         0.128398        -0.319718         0.134515
 C        -0.889774         0.425287         0.784603
 C        -1.163267         1.920882         0.779523
 C        -2.300675         1.364357         1.705679
 C        -1.132578         0.437575         2.347908
 O        -3.559785         1.824276         2.008618
 C        -4.404953         1.425225         0.917553
 C        -3.702536         0.645073        -0.180477
 C        -2.435941         0.213791         0.625311
 H         0.876356         0.182694        -0.284416
 H        -0.351908         2.539933         1.109995
 H        -1.470454         2.201098        -0.195803
 H        -0.300612         0.915453         2.855554
 H        -1.395012        -0.651223         2.715646
 H        -5.228041         0.780826         1.337429
 H        -5.087218         2.111401         0.300704
 H        -4.259959        -0.222679        -0.536156
 H        -3.480113         1.335588        -1.010587
 H        -2.708916        -0.653666         1.294656
