19
Iteration:  3029charge 0 multiplicity 1
 O         0.225222        -0.158307         0.165163
 C        -0.941240         0.359577         0.788316
 C        -1.142713         1.923670         0.731363
 C        -2.220224         1.343681         1.620562
 C        -1.220782         0.450332         2.288969
 O        -3.450607         1.924937         1.954828
 C        -4.475160         1.387393         1.022462
 C        -3.721287         0.562906        -0.197394
 C        -2.485435         0.163404         0.626618
 H         0.234773        -1.121154         0.441349
 H        -0.349670         2.414450         1.319195
 H        -1.442043         2.277510        -0.252138
 H        -0.484863         1.060014         2.783184
 H        -1.524259        -0.464318         2.825149
 H        -5.104084         0.672338         1.720079
 H        -5.194577         2.223513         0.732572
 H        -4.438970        -0.264789        -0.504070
 H        -3.455729         1.147589        -1.168001
 H        -2.805858        -0.691201         1.239182
