19
Iteration:  1222charge 0 multiplicity 1
 O         0.109566        -0.249241         0.142974
 C        -0.965437         0.462479         0.763018
 C        -1.279678         1.923098         0.630308
 C        -2.336463         1.155934         1.784593
 C        -1.012924         0.524914         2.328071
 O        -3.603200         1.683819         2.071975
 C        -4.320289         1.629014         0.753018
 C        -3.590694         0.666149        -0.166373
 C        -2.503037         0.064687         0.781384
 H         0.820794         0.380219         0.275697
 H        -0.446614         2.498685         1.097004
 H        -1.666538         2.221972        -0.399969
 H        -0.388638         1.269057         2.841520
 H        -0.906985        -0.517854         2.752065
 H        -5.317999         1.175457         1.106120
 H        -4.525738         2.668814         0.572097
 H        -4.291238        -0.180010        -0.491650
 H        -3.276291         1.200822        -1.131929
 H        -2.671198        -0.996433         1.090193
