19
Iteration:  4094
 O         0.125823        -0.195802         0.157631
 C        -0.921269         0.482744         0.793378
 C        -1.391824         1.876982         0.440075
 C        -2.274938         1.229565         1.670753
 C        -1.080190         0.639678         2.361138
 O        -3.513315         1.711888         2.094683
 C        -4.269400         1.670908         0.893567
 C        -3.636665         0.516706        -0.136196
 C        -2.458875        -0.000646         0.741763
 H         0.641856        -0.713924         0.838111
 H        -0.955132         2.819208         0.897993
 H        -1.751436         2.005715        -0.611842
 H        -0.498077         1.435804         2.894254
 H        -1.149679        -0.298272         2.907719
 H        -5.414947         1.448672         1.127953
 H        -4.394956         2.627989         0.325597
 H        -4.326750        -0.512836        -0.002004
 H        -3.475770         0.736943        -1.227532
 H        -2.736772        -0.999180         1.273076
