19
Iteration:  3788
 O         0.284249        -0.341720         0.255196
 C        -0.894124         0.391673         0.720682
 C        -1.436111         1.994884         0.588931
 C        -2.265643         1.253672         1.671837
 C        -1.060299         0.627694         2.322621
 O        -3.529442         1.753832         2.064828
 C        -4.350132         1.625369         0.858116
 C        -3.719455         0.528313        -0.117144
 C        -2.502520         0.023037         0.743654
 H         0.470666         0.077221        -0.651773
 H        -0.686223         2.711160         1.024540
 H        -1.894971         2.375731        -0.373062
 H        -0.318900         1.430612         2.764314
 H        -1.158590        -0.371478         2.965720
 H        -5.420072         1.457289         1.048123
 H        -4.459216         2.628007         0.329725
 H        -4.398497        -0.360879        -0.228371
 H        -3.424893         0.789596        -1.084867
 H        -2.704646        -0.878789         1.265581
