19
Iteration:  1290charge 0 multiplicity 1
 O         0.095855        -0.247373         0.024830
 C        -0.999315         0.360916         0.790530
 C        -1.224967         1.954100         0.774113
 C        -2.287852         1.386942         1.748653
 C        -1.103247         0.484165         2.332276
 O        -3.571803         1.896898         2.054093
 C        -4.442508         1.444612         0.868117
 C        -3.539909         0.537412        -0.207822
 C        -2.442632         0.050917         0.671050
 H         0.912953         0.033902         0.415509
 H        -0.409193         2.433365         1.413979
 H        -1.511918         2.440647        -0.122556
 H        -0.231882         1.007982         2.969258
 H        -1.293843        -0.440564         2.832261
 H        -5.340340         0.901409         1.476128
 H        -4.838293         2.348233         0.334459
 H        -4.127369        -0.280461        -0.883105
 H        -3.118003         1.253881        -0.936587
 H        -2.613072        -0.920451         1.144837
