19
Iteration:  4972
 O         0.217325        -0.299696         0.143030
 C        -0.967399         0.333464         0.761623
 C        -1.233500         1.845028         0.589492
 C        -2.303328         1.262665         1.644225
 C        -1.080705         0.680214         2.399205
 O        -3.526988         1.838496         2.047737
 C        -4.390303         1.446785         0.944754
 C        -3.641522         0.636383        -0.122150
 C        -2.523233         0.051921         0.711594
 H         0.019404        -0.002708        -0.776091
 H        -0.361994         2.517387         0.905441
 H        -1.653069         2.174785        -0.399532
 H        -0.335366         1.518611         2.750539
 H        -1.218705        -0.134806         3.175239
 H        -5.119181         0.926841         1.451861
 H        -4.866114         2.215701         0.473172
 H        -4.347323         0.086392        -0.734615
 H        -3.265811         1.533469        -0.765781
 H        -2.875944        -0.745760         1.362638
