19
Iteration:   722
 O         0.130297        -0.221779         0.013748
 C        -0.971544         0.398074         0.803103
 C        -1.172986         1.815738         0.728607
 C        -2.274451         1.286596         1.769111
 C        -1.147336         0.423489         2.435553
 O        -3.570763         1.954217         1.908511
 C        -4.425831         1.285909         0.969399
 C        -3.559546         0.739124        -0.210047
 C        -2.487823         0.199067         0.698172
 H         0.968357         0.169588         0.438085
 H        -0.321296         2.423762         0.998187
 H        -1.684057         2.102003        -0.310772
 H        -0.498839         1.060200         2.939521
 H        -1.386137        -0.587862         2.863599
 H        -4.944611         0.355209         1.284539
 H        -5.248562         1.961282         0.755439
 H        -4.064716        -0.075950        -0.773579
 H        -3.099247         1.551130        -0.958111
 H        -2.865946        -0.650684         1.308492
