19
Iteration:  2736
 O         0.130115        -0.307351         0.321888
 C        -0.934696         0.473639         0.771470
 C        -1.165354         1.961224         0.718968
 C        -2.291910         1.273768         1.608567
 C        -1.093386         0.461275         2.299009
 O        -3.478324         1.853343         1.926387
 C        -4.527150         1.319987         1.048969
 C        -3.687476         0.755644        -0.179251
 C        -2.402115         0.164183         0.537368
 H        -0.106689        -0.672789        -0.616796
 H        -0.276685         2.455048         1.268633
 H        -1.441391         2.538780        -0.191041
 H        -0.445582         1.048339         2.835525
 H        -1.206498        -0.600599         2.691509
 H        -4.895133         0.434370         1.572184
 H        -5.106161         2.209390         0.841648
 H        -4.143067        -0.129378        -0.692245
 H        -3.391386         1.541642        -0.873221
 H        -2.851305        -0.675324         1.167183
