19
Iteration:  2039
 O         0.115901        -0.317734         0.143440
 C        -0.883931         0.432660         0.784339
 C        -1.161839         1.918483         0.786001
 C        -2.300532         1.364404         1.705211
 C        -1.131804         0.430976         2.348832
 O        -3.557448         1.813309         1.992351
 C        -4.408028         1.422087         0.924107
 C        -3.694517         0.640272        -0.186587
 C        -2.446742         0.221935         0.603435
 H         0.862908         0.237242        -0.309542
 H        -0.289012         2.538172         1.135701
 H        -1.420066         2.171037        -0.266759
 H        -0.268639         0.883568         2.936458
 H        -1.399321        -0.522026         2.778537
 H        -5.136954         0.780006         1.435836
 H        -5.077253         2.131304         0.358287
 H        -4.353479        -0.287319        -0.479235
 H        -3.456610         1.382225        -0.966134
 H        -2.733928        -0.615827         1.256302
