19
Iteration:  1022charge 0 multiplicity 1
 O         0.010909        -0.276872        -0.025054
 C        -0.878274         0.413213         0.837170
 C        -1.218325         1.921191         0.726567
 C        -2.270323         1.318095         1.643073
 C        -1.187143         0.500425         2.437992
 O        -3.539422         1.894591         1.943987
 C        -4.475041         1.306915         0.964133
 C        -3.508281         0.726941        -0.146216
 C        -2.372453         0.054198         0.715059
 H         0.858653        -0.132467         0.529791
 H        -0.463134         2.599322         1.239824
 H        -1.309627         2.255802        -0.316433
 H        -0.503279         1.112740         2.915750
 H        -1.588331        -0.329753         2.966888
 H        -5.182267         0.622401         1.414942
 H        -5.052812         2.071246         0.424931
 H        -4.105369         0.074877        -0.838898
 H        -3.129787         1.634559        -0.688155
 H        -2.816744        -0.887050         1.141647
