19
Iteration:  4168charge 0 multiplicity 1
 O         0.109020        -0.249479         0.047605
 C        -0.910551         0.408162         0.767041
 C        -1.281512         1.946005         0.614805
 C        -2.284710         1.318886         1.642660
 C        -1.142650         0.604913         2.518230
 O        -3.487410         1.929234         1.876561
 C        -4.431996         1.320427         0.987523
 C        -3.541264         0.571738        -0.126751
 C        -2.399915         0.121740         0.772102
 H        -0.261074        -1.127551        -0.250721
 H        -0.499843         2.546093         0.960319
 H        -1.862140         2.164983        -0.265640
 H        -0.368346         1.179738         2.969286
 H        -1.471632        -0.199982         3.139318
 H        -5.191949         0.652977         1.575743
 H        -5.038782         2.052120         0.501398
 H        -4.148798        -0.340116        -0.500033
 H        -3.107694         1.268222        -0.844690
 H        -2.739263        -0.765968         1.448072
