19
Iteration:  3077
 O         0.129568        -0.230568         0.156273
 C        -0.915860         0.398383         0.825310
 C        -1.154402         1.877457         0.686102
 C        -2.268793         1.316478         1.642040
 C        -1.062791         0.492857         2.383639
 O        -3.546626         1.935859         1.874451
 C        -4.459696         1.246203         1.023657
 C        -3.589681         0.722927        -0.227655
 C        -2.519848         0.175972         0.693460
 H        -0.048171        -1.151122         0.035048
 H        -0.437540         2.553974         1.127180
 H        -1.576738         2.176169        -0.263902
 H        -0.221123         1.173402         2.861420
 H        -1.330076        -0.397740         2.980356
 H        -5.090899         0.447715         1.672340
 H        -5.141865         2.069078         0.931502
 H        -4.084175        -0.016719        -0.838501
 H        -3.529532         1.664460        -0.789135
 H        -2.872099        -0.760091         1.101481
