19
Iteration:  4108charge 0 multiplicity 1
 O         0.151767        -0.186001         0.107840
 C        -0.889574         0.447679         0.771100
 C        -1.280736         1.889558         0.562820
 C        -2.338996         1.235733         1.671047
 C        -1.044947         0.602994         2.340346
 O        -3.573466         1.824669         2.074089
 C        -4.377269         1.583786         0.806558
 C        -3.694903         0.455996        -0.037373
 C        -2.427044         0.034299         0.762789
 H         0.599444        -0.701933         0.746065
 H        -0.442558         2.648362         0.679760
 H        -1.763828         2.148187        -0.398735
 H        -0.231713         1.278906         2.797462
 H        -1.270079        -0.379001         2.914875
 H        -5.328748         1.274312         1.154154
 H        -4.383409         2.592636         0.329545
 H        -4.394008        -0.257847        -0.238957
 H        -3.515171         0.857559        -1.018274
 H        -2.546616        -0.880080         1.230437
