19
Iteration:  1320
 O         0.093490        -0.255200         0.125972
 C        -0.916172         0.494137         0.773210
 C        -1.269808         1.897379         0.632580
 C        -2.252859         1.193442         1.728680
 C        -1.136490         0.477677         2.475228
 O        -3.442151         1.831489         1.973241
 C        -4.434683         1.422031         0.947885
 C        -3.640182         0.670510        -0.230750
 C        -2.476040         0.128244         0.619103
 H         0.916482        -0.060992         0.628813
 H        -0.625893         2.736559         1.100038
 H        -1.716934         2.245652        -0.290246
 H        -0.651668         1.151187         3.083684
 H        -1.293246        -0.538611         2.798827
 H        -5.146924         0.894439         1.529809
 H        -4.984750         2.282904         0.679352
 H        -4.217737        -0.043764        -0.885689
 H        -3.300698         1.455497        -0.921793
 H        -2.547603        -0.949300         0.968486
