19
Iteration:   785
 O         0.062597        -0.249736         0.138516
 C        -0.883901         0.411831         0.844297
 C        -1.188845         1.930628         0.660481
 C        -2.293526         1.253676         1.693898
 C        -1.061643         0.532690         2.370968
 O        -3.595863         1.642802         2.197094
 C        -4.385467         1.582724         0.755834
 C        -3.659665         0.587764        -0.220417
 C        -2.441435         0.148127         0.636587
 H         0.642822         0.482398        -0.136576
 H        -0.457452         2.668222         0.953400
 H        -1.476423         2.192975        -0.386728
 H        -0.341871         1.062502         2.948304
 H        -1.367773        -0.454249         2.912292
 H        -5.435756         1.242890         0.886231
 H        -4.281878         2.654511         0.596081
 H        -4.227848        -0.215176        -0.492116
 H        -3.413704         1.122866        -1.154892
 H        -2.802056        -0.629475         1.247181
