19
Iteration:   942
 O         0.154853        -0.237384         0.142231
 C        -0.926903         0.393963         0.767594
 C        -1.159647         1.848007         0.713641
 C        -2.253731         1.225888         1.644984
 C        -1.132971         0.548721         2.386028
 O        -3.539955         1.782909         2.029346
 C        -4.482500         1.457190         0.936943
 C        -3.672253         0.738927        -0.170575
 C        -2.474818         0.097283         0.570257
 H         0.861162         0.351592         0.598705
 H        -0.278085         2.431316         1.196978
 H        -1.596271         2.225315        -0.234776
 H        -0.212260         1.028758         2.823933
 H        -1.376904        -0.211175         3.045725
 H        -5.147176         0.770625         1.494948
 H        -5.032868         2.351508         0.603159
 H        -4.239024        -0.058916        -0.777375
 H        -3.436751         1.371468        -1.020563
 H        -2.811320        -0.915048         0.968505
