19
Iteration:  3566charge 0 multiplicity 1
 O         0.038012        -0.340188         0.116639
 C        -0.940396         0.433372         0.758570
 C        -1.174645         1.899060         0.689079
 C        -2.247368         1.377051         1.638139
 C        -1.074657         0.543096         2.319999
 O        -3.625195         1.885323         1.925605
 C        -4.463613         1.287947         0.997527
 C        -3.573082         0.730897        -0.162470
 C        -2.394736         0.167814         0.760565
 H         0.546364        -0.728393         0.915199
 H        -0.344664         2.551909         1.020165
 H        -1.437184         2.371118        -0.320020
 H        -0.206205         1.056720         2.872032
 H        -1.333883        -0.452485         2.795146
 H        -4.952819         0.313338         1.340442
 H        -5.314657         1.978287         0.651752
 H        -4.043938        -0.053352        -0.821617
 H        -3.111872         1.526715        -0.762365
 H        -2.655197        -0.752480         1.243829
