19
Iteration:  2245charge 0 multiplicity 1
 O         0.196556        -0.227755         0.147447
 C        -0.880427         0.464091         0.690227
 C        -1.261960         1.971089         0.802276
 C        -2.316154         1.213428         1.710251
 C        -1.119227         0.462764         2.263786
 O        -3.584935         1.683356         2.081326
 C        -4.241713         1.766182         0.721531
 C        -3.730159         0.444045        -0.111244
 C        -2.507155         0.037471         0.782335
 H         0.404176         0.243201        -0.647696
 H        -0.594475         2.577938         1.335217
 H        -1.733395         2.557272         0.048785
 H        -0.255580         0.964957         2.949692
 H        -1.394806        -0.455081         2.776649
 H        -5.316781         1.865092         0.937585
 H        -3.930682         2.798774         0.324477
 H        -4.622857        -0.293348        -0.266340
 H        -3.637295         0.790732        -1.211609
 H        -2.684276        -0.861684         1.421988
