19
Iteration:  2413
 O         0.177670        -0.309984         0.227709
 C        -0.938888         0.424025         0.747310
 C        -1.237566         1.936886         0.741355
 C        -2.247273         1.302956         1.642745
 C        -1.205909         0.439880         2.314259
 O        -3.486558         1.973377         1.965544
 C        -4.383358         1.363403         1.003216
 C        -3.667855         0.699442        -0.169351
 C        -2.468579         0.070830         0.607388
 H         0.613309         0.040487        -0.525817
 H        -0.543760         2.586268         1.244110
 H        -1.750001         2.226727        -0.125845
 H        -0.302335         0.706372         2.964576
 H        -1.420749        -0.462507         2.639028
 H        -4.927343         0.528472         1.540479
 H        -5.121053         2.074845         0.564168
 H        -4.305009         0.008582        -0.610893
 H        -3.471847         1.605914        -0.787391
 H        -2.695158        -0.976106         0.999352
