19
Iteration:  3629
 O         0.266260        -0.174391         0.250468
 C        -0.930896         0.420069         0.754268
 C        -1.137470         1.868645         0.690049
 C        -2.257708         1.360326         1.609341
 C        -1.092524         0.420046         2.271187
 O        -3.455893         1.938830         1.940532
 C        -4.556330         1.386299         0.910854
 C        -3.746436         0.567938        -0.160497
 C        -2.524905         0.145435         0.760452
 H        -0.067814        -1.079135        -0.095733
 H        -0.444082         2.566323         1.114446
 H        -1.695029         2.171990        -0.214963
 H        -0.227461         0.977910         2.797106
 H        -1.384117        -0.459491         2.891944
 H        -5.181496         0.755905         1.559176
 H        -5.308963         2.176966         0.671481
 H        -4.425485        -0.102838        -0.618946
 H        -3.275252         1.428532        -0.827313
 H        -2.653251        -0.882823         1.271244
