19
Iteration:  2855
 O         0.042050        -0.183502         0.053380
 C        -0.893361         0.466372         0.797061
 C        -1.276707         1.923525         0.682753
 C        -2.298238         1.172630         1.721635
 C        -1.043219         0.598113         2.316159
 O        -3.633220         1.687387         2.065406
 C        -4.237705         1.671349         0.806397
 C        -3.627882         0.532524        -0.094222
 C        -2.462357        -0.004332         0.705556
 H         0.615951        -0.605213         0.652226
 H        -0.611861         2.600401         1.091049
 H        -1.629803         2.363701        -0.227131
 H        -0.297513         1.266288         2.796617
 H        -1.163465        -0.379148         3.012230
 H        -5.357745         1.461145         0.971946
 H        -4.116279         2.678845         0.436449
 H        -4.460349        -0.164139        -0.410098
 H        -3.265340         1.036225        -1.016327
 H        -2.850251        -0.849939         1.199921
