19
Iteration:  3374
 O         0.129589        -0.235239         0.052455
 C        -0.948886         0.293773         0.808719
 C        -1.291806         1.978747         0.688067
 C        -2.272409         1.349965         1.662270
 C        -1.165153         0.466937         2.386932
 O        -3.573523         1.863978         1.967935
 C        -4.387990         1.438320         0.958314
 C        -3.501794         0.679640        -0.196983
 C        -2.422554         0.099910         0.711523
 H         0.638798        -1.019169         0.389191
 H        -0.524788         2.567416         1.075889
 H        -1.704171         2.304773        -0.238795
 H        -0.410096         1.041714         2.892227
 H        -1.515688        -0.435846         2.996621
 H        -5.105163         0.790313         1.511329
 H        -5.062695         2.161126         0.527930
 H        -4.041251        -0.152246        -0.755056
 H        -3.148687         1.453537        -0.809085
 H        -2.799241        -0.655040         1.483456
