19
Iteration:  2605
 O         0.164177        -0.238629         0.203713
 C        -0.954972         0.391038         0.699569
 C        -1.308343         1.924620         0.697170
 C        -2.295793         1.195046         1.692880
 C        -1.103355         0.569449         2.340431
 O        -3.585791         1.703592         2.112993
 C        -4.239483         1.653225         0.808373
 C        -3.637347         0.578606        -0.102122
 C        -2.491854         0.032020         0.690288
 H         0.259762         0.272159        -0.654557
 H        -0.584300         2.701127         1.137570
 H        -1.696192         2.324179        -0.320136
 H        -0.378670         1.185516         2.725605
 H        -1.055907        -0.429080         2.862572
 H        -5.314516         1.579619         0.933350
 H        -4.188933         2.657713         0.311038
 H        -4.389864        -0.190252        -0.407287
 H        -3.349071         1.072745        -0.982037
 H        -2.846337        -0.954956         1.054972
