19
Iteration:  2288charge 0 multiplicity 1
 O         0.170002        -0.159397         0.162455
 C        -0.954915         0.402074         0.823378
 C        -1.305692         1.901723         0.643305
 C        -2.295658         1.224652         1.695347
 C        -1.173502         0.480466         2.390573
 O        -3.486402         1.703776         2.082074
 C        -4.336873         1.665496         0.862464
 C        -3.603955         0.669629        -0.171273
 C        -2.476716         0.031443         0.708983
 H         0.060858        -0.327304        -0.800265
 H        -0.572685         2.618217         0.897015
 H        -1.617476         2.131774        -0.360530
 H        -0.345951         0.942320         2.820746
 H        -1.463767        -0.464912         2.776642
 H        -5.331588         1.325061         1.093344
 H        -4.375461         2.646284         0.372940
 H        -4.264295        -0.233818        -0.530337
 H        -3.189397         0.849103        -1.197110
 H        -2.730152        -0.903662         1.230664
