19
Iteration:   838
 O         0.045944        -0.104256         0.057297
 C        -0.933525         0.456748         0.830772
 C        -1.411087         1.860003         0.728223
 C        -2.338000         1.176961         1.799109
 C        -1.089253         0.443984         2.345395
 O        -3.529733         1.770463         2.091272
 C        -4.175276         1.695282         0.706006
 C        -3.605081         0.493042        -0.163458
 C        -2.436787         0.016601         0.690636
 H         0.863089         0.362550         0.297842
 H        -0.737297         2.641950         1.082779
 H        -1.757175         2.066141        -0.234243
 H        -0.351148         1.088579         2.838698
 H        -1.442613        -0.490042         2.881646
 H        -5.255532         1.606902         0.887956
 H        -4.007002         2.724031         0.454875
 H        -4.282382        -0.286650         0.010371
 H        -3.527525         0.721208        -1.202874
 H        -2.561641        -1.010646         1.001051
