19
Iteration:  2678
 O         0.063058        -0.267083         0.199240
 C        -0.957747         0.418332         0.802039
 C        -1.279019         1.935975         0.723184
 C        -2.298663         1.284421         1.668660
 C        -1.044678         0.419392         2.367174
 O        -3.480123         1.863682         1.955640
 C        -4.356918         1.372953         0.903097
 C        -3.615708         0.693757        -0.164858
 C        -2.462120         0.098084         0.661842
 H         0.235198         0.240290        -0.562444
 H        -0.537915         2.529395         1.137357
 H        -1.516339         2.281452        -0.275751
 H        -0.263947         1.138696         2.735320
 H        -1.273219        -0.392897         3.122463
 H        -5.239420         0.861446         1.389656
 H        -4.901084         2.218752         0.601751
 H        -4.254614         0.038319        -0.840098
 H        -3.194770         1.413404        -0.909080
 H        -2.864297        -0.756659         1.227340
