19
Iteration:  2747charge 0 multiplicity 1
 O         0.145923        -0.315231         0.298525
 C        -0.878624         0.477364         0.738966
 C        -1.193320         2.008722         0.705595
 C        -2.257868         1.269097         1.661023
 C        -1.146248         0.414778         2.302703
 O        -3.495146         1.928691         1.954127
 C        -4.422779         1.295615         1.017255
 C        -3.652825         0.720597        -0.179245
 C        -2.500675         0.131986         0.598503
 H         0.049312        -0.573033        -0.638229
 H        -0.391461         2.659717         1.214799
 H        -1.549623         2.435500        -0.264358
 H        -0.475934         0.978201         2.862134
 H        -1.268392        -0.617885         2.736638
 H        -5.104979         0.574309         1.493951
 H        -5.218992         1.939390         0.668362
 H        -4.423152         0.150214        -0.730456
 H        -3.457271         1.562689        -0.848366
 H        -2.600117        -0.939532         0.966368
