19
Iteration:  1663charge 0 multiplicity 1
 O         0.029232        -0.236956         0.058941
 C        -0.865466         0.453510         0.752451
 C        -1.150225         1.956018         0.716535
 C        -2.320434         1.263303         1.719192
 C        -1.190306         0.515100         2.362864
 O        -3.539470         1.760755         2.023813
 C        -4.387177         1.510692         0.886505
 C        -3.600159         0.543434        -0.137754
 C        -2.433877         0.137626         0.661123
 H         0.873763        -0.152545         0.436161
 H        -0.400580         2.491596         1.288540
 H        -1.385144         2.533666        -0.251408
 H        -0.464055         1.044658         2.981326
 H        -1.482240        -0.304209         2.973251
 H        -5.221979         1.054134         1.244518
 H        -4.778074         2.405810         0.494807
 H        -4.198281        -0.356700        -0.271938
 H        -3.519370         1.069223        -1.113814
 H        -2.556336        -0.925970         0.992583
