19
Iteration:  2003
 O         0.024902        -0.239544         0.085766
 C        -0.977919         0.424608         0.796848
 C        -1.306093         1.895286         0.725587
 C        -2.265365         1.210179         1.654453
 C        -1.130041         0.560112         2.372140
 O        -3.522262         1.787217         2.019961
 C        -4.313977         1.526892         0.891449
 C        -3.581138         0.669411        -0.172438
 C        -2.431552         0.002490         0.727361
 H         0.947141         0.168663         0.259935
 H        -0.621164         2.550235         1.184737
 H        -1.681911         2.278287        -0.183920
 H        -0.373262         1.198646         2.753224
 H        -1.122580        -0.521809         2.904075
 H        -5.171037         0.886112         1.271491
 H        -4.591140         2.568269         0.363419
 H        -4.175035         0.077909        -0.825156
 H        -3.100349         1.335552        -0.902435
 H        -2.750997        -0.980283         1.173094
