19
Iteration:  1166charge 0 multiplicity 1
 O         0.008608        -0.178151         0.084028
 C        -0.990115         0.460194         0.779913
 C        -1.255281         1.987373         0.715358
 C        -2.270335         1.218465         1.715159
 C        -1.129928         0.464110         2.389221
 O        -3.558300         1.700035         2.025703
 C        -4.287051         1.696816         0.747600
 C        -3.592350         0.460335        -0.048932
 C        -2.378825         0.049575         0.658071
 H         0.848521         0.095508         0.447894
 H        -0.641752         2.682590         1.294822
 H        -1.734198         2.503515        -0.233729
 H        -0.382187         0.977726         2.928155
 H        -1.340920        -0.589575         2.834957
 H        -5.360343         1.559091         1.013202
 H        -4.145484         2.688274         0.237823
 H        -4.252479        -0.381748        -0.031447
 H        -3.577439         0.863714        -1.159550
 H        -2.441173        -0.998820         1.067622
