19
Iteration:  1827charge 0 multiplicity 1
 O        -0.020510        -0.212568         0.065320
 C        -0.930975         0.402912         0.835295
 C        -1.164541         1.921221         0.737963
 C        -2.284107         1.273718         1.672637
 C        -1.083788         0.553921         2.339111
 O        -3.518051         1.736127         2.023450
 C        -4.379676         1.459929         0.854251
 C        -3.605283         0.633315        -0.166233
 C        -2.464059         0.118640         0.735461
 H         0.962118        -0.092302         0.307277
 H        -0.296495         2.528217         1.051266
 H        -1.600699         2.132580        -0.247320
 H        -0.367348         1.117022         2.845530
 H        -1.393290        -0.335250         2.975825
 H        -5.381386         0.998825         1.106064
 H        -4.866093         2.444510         0.469903
 H        -4.194491        -0.155893        -0.586439
 H        -3.221364         1.290441        -0.999240
 H        -2.743311        -0.873689         1.188844
