19
Iteration:  2915charge 0 multiplicity 1
 O         0.163582        -0.075811         0.154756
 C        -0.912363         0.436542         0.736489
 C        -1.326478         1.891900         0.711313
 C        -2.281794         1.183104         1.752905
 C        -1.068366         0.504677         2.350496
 O        -3.457829         1.795404         2.054890
 C        -4.353411         1.682268         0.759329
 C        -3.688646         0.455979        -0.099390
 C        -2.525589         0.004772         0.681451
 H         0.064799        -0.940885        -0.276545
 H        -0.502219         2.510733         1.200029
 H        -1.853457         2.329513        -0.172404
 H        -0.311071         1.130701         2.829788
 H        -1.288089        -0.372080         2.839577
 H        -5.392658         1.559133         1.045651
 H        -4.173126         2.595229         0.107501
 H        -4.416839        -0.327865        -0.195593
 H        -3.476108         0.812978        -1.091406
 H        -2.721558        -0.918906         1.287372
