19
Iteration:   906charge 0 multiplicity 1
 O         0.028505        -0.239338         0.102893
 C        -0.911775         0.526882         0.788191
 C        -1.321786         1.979167         0.714484
 C        -2.274659         1.163412         1.732774
 C        -1.098706         0.470284         2.376928
 O        -3.484683         1.703246         1.988784
 C        -4.357078         1.563807         0.806073
 C        -3.578928         0.655410        -0.144549
 C        -2.479653         0.055781         0.756646
 H         0.993949         0.122231         0.123446
 H        -0.620683         2.694577         0.950328
 H        -1.858707         2.291763        -0.228808
 H        -0.347692         0.941654         2.982901
 H        -1.534395        -0.555093         2.636292
 H        -5.277228         1.085421         1.219895
 H        -4.685882         2.487661         0.307325
 H        -4.191762        -0.047256        -0.509165
 H        -3.043789         1.253809        -0.899218
 H        -2.531215        -0.882193         1.219664
