19
Iteration:   166charge 0 multiplicity 1
 O        -0.037996        -0.309005         0.039129
 C        -0.853070         0.513490         0.850006
 C        -1.171800         2.050056         0.895312
 C        -2.376450         1.215405         1.710713
 C        -1.107264         0.354907         2.358753
 O        -3.712593         1.552295         2.088157
 C        -4.286159         1.657811         0.698932
 C        -3.508836         0.659653        -0.185984
 C        -2.389339         0.186618         0.643016
 H         0.717645         0.218594        -0.308106
 H        -0.605621         2.671336         1.654249
 H        -1.391672         2.484377         0.024669
 H        -0.469554         1.053559         3.032756
 H        -1.296614        -0.549756         2.838228
 H        -5.372174         1.491379         0.800391
 H        -4.012612         2.697204         0.331598
 H        -4.182941        -0.132794        -0.365226
 H        -3.094866         1.045607        -1.125881
 H        -2.644058        -0.744596         1.067334
