19
Iteration:  1206charge 0 multiplicity 1
 O         0.134828        -0.189293         0.123884
 C        -0.891220         0.355541         0.807274
 C        -1.338780         1.847789         0.709006
 C        -2.309338         1.257596         1.638404
 C        -0.990424         0.515871         2.361109
 O        -3.616853         1.654716         2.050348
 C        -4.378496         1.715156         0.855509
 C        -3.639298         0.643076        -0.124265
 C        -2.431957        -0.002345         0.673452
 H         0.998229         0.252250         0.418155
 H        -0.770013         2.690353         1.113245
 H        -1.761552         2.191905        -0.229217
 H        -0.138231         1.213281         2.581680
 H        -1.356523        -0.287169         2.965079
 H        -5.424421         1.589640         0.977791
 H        -4.377070         2.674449         0.261987
 H        -4.250459        -0.172187        -0.477671
 H        -3.301133         1.060442        -1.040518
 H        -2.819233        -0.866618         1.233148
