19
Iteration:  3086
 O         0.107849        -0.240551         0.134464
 C        -0.935855         0.359623         0.755843
 C        -1.195745         1.900177         0.649285
 C        -2.238666         1.332879         1.665183
 C        -1.061550         0.507770         2.400628
 O        -3.526636         1.946049         1.969121
 C        -4.499292         1.248518         0.982557
 C        -3.600259         0.722816        -0.255185
 C        -2.492257         0.152384         0.748078
 H        -0.126095        -1.154720         0.239770
 H        -0.579275         2.580063         1.264851
 H        -1.350762         2.421203        -0.245367
 H        -0.351698         1.220015         2.939187
 H        -1.231433        -0.382483         2.998100
 H        -4.797635         0.317739         1.449344
 H        -5.227832         1.923623         0.560436
 H        -4.060416         0.048682        -0.979915
 H        -3.036093         1.530523        -0.903552
 H        -2.917315        -0.675980         1.293642
