19
Iteration:  2512
 O         0.102499        -0.186599         0.108670
 C        -0.920460         0.431388         0.780912
 C        -1.251779         1.899422         0.779999
 C        -2.241593         1.273002         1.765686
 C        -1.044151         0.439947         2.373256
 O        -3.545799         1.800923         2.028340
 C        -4.409152         1.597982         0.814887
 C        -3.643785         0.530427        -0.171862
 C        -2.429330         0.125854         0.682082
 H        -0.116345        -0.724228        -0.625085
 H        -0.789962         2.710952         1.315414
 H        -1.645474         2.216982        -0.165406
 H        -0.167212         1.024501         2.962645
 H        -1.199278        -0.501458         2.828229
 H        -5.447453         1.222898         1.066923
 H        -4.606368         2.555194         0.328541
 H        -4.272098        -0.287674        -0.471151
 H        -3.260127         1.052512        -1.219738
 H        -2.778625        -0.873825         1.129279
