19
Iteration:   678
 O         0.032285        -0.382024         0.213553
 C        -0.836518         0.494319         0.709656
 C        -1.126467         2.039818         0.781610
 C        -2.302703         1.201183         1.633523
 C        -1.114246         0.536130         2.339139
 O        -3.510993         1.801033         1.959428
 C        -4.469551         1.336566         1.006047
 C        -3.674598         0.723900        -0.223964
 C        -2.423559         0.199980         0.568014
 H         0.911879        -0.163600         0.645021
 H        -0.407425         2.551716         1.394200
 H        -1.635827         2.602492        -0.082276
 H        -0.499747         1.146421         2.939572
 H        -1.208725        -0.464173         2.840744
 H        -5.047849         0.522567         1.457384
 H        -5.179406         2.095606         0.711595
 H        -4.181024        -0.200967        -0.485835
 H        -3.725774         1.481914        -1.122313
 H        -2.658916        -0.862702         0.794099
