19
Iteration:  1921
 O         0.109563        -0.203257         0.027629
 C        -0.897433         0.436269         0.800588
 C        -1.373320         1.947042         0.694741
 C        -2.275772         1.167448         1.722245
 C        -1.109916         0.475622         2.393740
 O        -3.563764         1.757627         2.050673
 C        -4.270462         1.709026         0.797441
 C        -3.634599         0.530453        -0.098024
 C        -2.465070        -0.021904         0.713110
 H         0.890973         0.344891         0.170723
 H        -0.545100         2.615085         1.105091
 H        -1.774698         2.255933        -0.337747
 H        -0.428108         1.120062         3.095735
 H        -1.434352        -0.388251         2.859659
 H        -5.311097         1.750685         1.075995
 H        -4.138710         2.634998         0.279172
 H        -4.274619        -0.387394        -0.275644
 H        -3.406844         1.020028        -1.038596
 H        -2.658735        -0.974294         1.160485
