19
Iteration:  2140
 O         0.155175        -0.355502         0.146016
 C        -0.877431         0.449398         0.766729
 C        -1.242004         1.964271         0.792962
 C        -2.268668         1.329068         1.621267
 C        -1.209587         0.520894         2.355735
 O        -3.494084         1.740237         2.036866
 C        -4.462829         1.488063         0.937278
 C        -3.611766         0.658041        -0.137751
 C        -2.393911         0.144809         0.584432
 H        -0.046619        -0.452662        -0.751497
 H        -0.449269         2.638606         1.293293
 H        -1.564923         2.448265        -0.224318
 H        -0.637924         1.136842         3.154608
 H        -1.524884        -0.394584         2.834934
 H        -5.322323         0.825287         1.205154
 H        -4.715863         2.444395         0.519082
 H        -4.379913        -0.213942        -0.526257
 H        -3.240514         1.363247        -0.979127
 H        -2.556959        -0.812021         1.138593
