19
Iteration:  4681
 O         0.127366        -0.263618         0.140443
 C        -0.929435         0.398658         0.782812
 C        -1.280663         1.873639         0.633529
 C        -2.313136         1.302777         1.581819
 C        -1.041625         0.583453         2.310403
 O        -3.467775         1.862610         1.999299
 C        -4.350287         1.486828         0.893285
 C        -3.670001         0.494028        -0.072951
 C        -2.562696         0.053185         0.818798
 H         0.643802         0.499962        -0.011435
 H        -0.576532         2.568877         1.071885
 H        -1.635508         2.262880        -0.290309
 H        -0.399479         1.323324         2.770067
 H        -1.164573        -0.346654         2.815703
 H        -5.292996         1.077809         1.169567
 H        -4.589680         2.310281         0.330963
 H        -4.491918        -0.112894        -0.499742
 H        -3.080360         1.048763        -0.905919
 H        -2.855233        -0.736532         1.576215
