19
Iteration:  1088
 O         0.184218        -0.292842         0.112620
 C        -0.938391         0.419367         0.709240
 C        -1.275336         1.939634         0.685524
 C        -2.348721         1.184126         1.712918
 C        -1.122864         0.547861         2.401566
 O        -3.551342         1.761744         2.141004
 C        -4.386690         1.619757         0.764625
 C        -3.598266         0.612740        -0.201426
 C        -2.464754         0.057743         0.742553
 H         0.901521         0.284064        -0.001668
 H        -0.443979         2.618130         1.010656
 H        -1.658529         2.346356        -0.332776
 H        -0.486313         1.194092         2.949558
 H        -1.435420        -0.427495         2.861199
 H        -5.256215         1.117428         1.139895
 H        -4.637879         2.672897         0.548160
 H        -4.205836        -0.267516        -0.413519
 H        -3.289096         1.113298        -1.213218
 H        -2.659456        -0.938596         1.252225
