19
Iteration:  1923
 O         0.100022        -0.206463         0.032240
 C        -0.908037         0.443049         0.804628
 C        -1.353839         1.960895         0.696467
 C        -2.271072         1.173776         1.732660
 C        -1.098554         0.479738         2.385897
 O        -3.569197         1.761403         2.046488
 C        -4.269458         1.705135         0.807451
 C        -3.642034         0.513093        -0.124319
 C        -2.452779        -0.029889         0.702862
 H         0.954949         0.341297         0.153946
 H        -0.584924         2.585285         1.114106
 H        -1.857028         2.224185        -0.274195
 H        -0.453306         1.112392         3.125659
 H        -1.439566        -0.422124         2.897117
 H        -5.346554         1.725882         1.136801
 H        -4.071471         2.689076         0.258081
 H        -4.313295        -0.326547        -0.215494
 H        -3.403102         1.013572        -1.039269
 H        -2.696287        -0.982237         1.148162
