19
Iteration:   396charge 0 multiplicity 1
 O         0.124304        -0.244237         0.170365
 C        -0.942618         0.402219         0.782012
 C        -1.172679         1.948186         0.742293
 C        -2.282421         1.266129         1.666527
 C        -1.173399         0.481348         2.362084
 O        -3.462675         1.773624         2.020427
 C        -4.476958         1.327928         0.911765
 C        -3.628184         0.765701        -0.220707
 C        -2.453639         0.168110         0.546676
 H         0.790858        -0.621269         0.796971
 H        -0.356082         2.565760         1.198156
 H        -1.540884         2.474895        -0.247691
 H        -0.532077         1.051153         3.052042
 H        -1.445301        -0.512007         2.933586
 H        -5.157294         0.598939         1.402534
 H        -4.965821         2.308558         0.592738
 H        -4.237445         0.176739        -0.903384
 H        -3.342312         1.699610        -0.746080
 H        -2.902310        -0.732315         1.009163
