19
Iteration:   357charge 0 multiplicity 1
 O         0.211264        -0.320869         0.156641
 C        -0.877494         0.419549         0.792895
 C        -1.171213         1.967590         0.854750
 C        -2.260366         1.288279         1.669514
 C        -1.195241         0.343850         2.345936
 O        -3.488015         1.881613         1.989089
 C        -4.468080         1.363345         0.903916
 C        -3.770634         0.677700        -0.245706
 C        -2.473120         0.252991         0.579234
 H         0.843586         0.458530         0.036312
 H        -0.504686         2.558224         1.428006
 H        -1.491197         2.475522        -0.064097
 H        -0.416606         0.745383         3.019853
 H        -1.567090        -0.546761         2.868887
 H        -5.143568         0.805135         1.564392
 H        -5.008956         2.220289         0.457427
 H        -4.170987        -0.292184        -0.733178
 H        -3.644147         1.440164        -1.035332
 H        -2.535374        -0.800073         0.951597
