19
Iteration:  3543charge 0 multiplicity 1
 O         0.058536        -0.435372         0.066716
 C        -0.898667         0.437845         0.797895
 C        -1.233595         2.017381         0.690861
 C        -2.292323         1.297419         1.656878
 C        -1.050988         0.612714         2.365013
 O        -3.521724         1.860361         2.031631
 C        -4.491460         1.337933         0.889424
 C        -3.575782         0.629439        -0.189515
 C        -2.447021         0.135636         0.739982
 H         0.797603        -0.517502         0.677810
 H        -0.645814         2.799608         1.208063
 H        -1.545283         2.593963        -0.243075
 H        -0.401841         1.334726         3.017147
 H        -1.199546        -0.395061         2.871970
 H        -5.342073         0.718226         1.351522
 H        -4.900198         2.232842         0.257683
 H        -4.173855        -0.078870        -0.764825
 H        -3.217931         1.514830        -0.852032
 H        -2.747449        -0.831402         1.125927
