19
Iteration:  3440charge 0 multiplicity 1
 O         0.199784        -0.187130         0.137454
 C        -0.929295         0.417586         0.760346
 C        -1.391999         2.047492         0.597678
 C        -2.350000         1.226013         1.695844
 C        -1.162139         0.514975         2.386926
 O        -3.533670         1.630074         2.111988
 C        -4.150337         1.745888         0.715399
 C        -3.678982         0.464412        -0.055238
 C        -2.425410         0.067946         0.758515
 H        -0.012595        -0.843582        -0.531810
 H        -0.739327         2.718220         1.083244
 H        -1.755536         2.388140        -0.319015
 H        -0.536682         1.089862         3.054560
 H        -1.427758        -0.500922         2.761218
 H        -5.266913         1.761472         0.763527
 H        -3.726539         2.657856         0.306557
 H        -4.557114        -0.232513        -0.019783
 H        -3.460051         0.721496        -1.091241
 H        -2.774675        -0.863661         1.329737
