19
Iteration:   583
 O         0.040442        -0.200463         0.035176
 C        -0.967264         0.500291         0.783489
 C        -1.220574         2.031877         0.826397
 C        -2.245038         1.245751         1.750589
 C        -1.061902         0.369382         2.328451
 O        -3.663327         1.815172         2.019622
 C        -4.298039         1.588086         0.721754
 C        -3.613487         0.503364        -0.076028
 C        -2.421886        -0.008526         0.751807
 H         0.657824         0.408215        -0.296564
 H        -0.366304         2.592214         1.281806
 H        -1.821427         2.704543         0.037879
 H        -0.288862         0.745128         3.094461
 H        -1.349242        -0.649374         2.720490
 H        -5.355770         1.302828         0.913033
 H        -4.417991         2.551098         0.107941
 H        -4.205413        -0.344982        -0.474996
 H        -3.075036         0.869291        -0.953775
 H        -2.545427        -0.981375         1.291521
