19
Iteration:  1408
 O         0.046528        -0.252376         0.010006
 C        -0.919763         0.393614         0.710405
 C        -1.234627         1.974365         0.756530
 C        -2.240078         1.283918         1.740304
 C        -1.135139         0.477815         2.489907
 O        -3.467889         1.898308         1.951890
 C        -4.445328         1.396492         0.863201
 C        -3.583704         0.610681        -0.201342
 C        -2.478217         0.023143         0.752806
 H         0.863949         0.226627         0.214940
 H        -0.353194         2.553090         1.269409
 H        -1.762032         2.481680        -0.021074
 H        -0.445870         1.169004         3.003540
 H        -1.445838        -0.321127         3.222111
 H        -5.199690         0.743037         1.239018
 H        -5.000398         2.197249         0.453603
 H        -4.234271         0.097472        -0.995531
 H        -3.077138         1.362897        -0.791267
 H        -2.825542        -0.971473         1.299642
