19
Iteration:  4419
 O         0.169753        -0.166539         0.039234
 C        -0.896157         0.455194         0.791895
 C        -1.265889         1.977701         0.681089
 C        -2.277499         1.298885         1.649031
 C        -1.082160         0.535188         2.359536
 O        -3.539781         1.749845         1.985235
 C        -4.311869         1.597700         0.784270
 C        -3.764033         0.410848        -0.008003
 C        -2.449796         0.051717         0.764663
 H         0.346259        -0.968898         0.562359
 H        -0.601131         2.704493         1.292903
 H        -1.607018         2.271659        -0.368801
 H        -0.286482         1.224847         2.820747
 H        -1.539539        -0.373512         2.916180
 H        -5.414744         1.620863         1.169574
 H        -4.282752         2.544295         0.142126
 H        -4.474339        -0.469989        -0.086303
 H        -3.658889         0.727528        -0.957646
 H        -2.650539        -0.741166         1.474473
