19
Iteration:  1731
 O         0.049893        -0.354612         0.109654
 C        -0.890569         0.456380         0.828009
 C        -1.191389         1.964776         0.709656
 C        -2.260844         1.301443         1.616121
 C        -1.180654         0.538748         2.359665
 O        -3.485056         1.811084         1.946914
 C        -4.444371         1.309036         1.026573
 C        -3.595369         0.727882        -0.162018
 C        -2.460483         0.128601         0.648188
 H         0.834270         0.250782        -0.032865
 H        -0.419821         2.677091         1.211019
 H        -1.533100         2.423574        -0.214220
 H        -0.422295         0.970871         2.962555
 H        -1.760911        -0.230204         3.012337
 H        -5.104182         0.550814         1.309932
 H        -5.157247         2.001290         0.761153
 H        -4.066522         0.037251        -0.895951
 H        -3.062569         1.521437        -0.818911
 H        -2.725594        -0.836763         1.116800
