19
Iteration:  3702
 O         0.016177        -0.270009         0.161381
 C        -0.995087         0.469269         0.717140
 C        -1.283346         1.889935         0.734918
 C        -2.234479         1.291628         1.794866
 C        -0.986632         0.650758         2.305839
 O        -3.647368         1.704082         2.100771
 C        -4.287086         1.571651         0.669188
 C        -3.617091         0.473816        -0.152540
 C        -2.401193         0.129451         0.813451
 H        -0.001419        -0.386443        -0.766316
 H        -0.498692         2.632509         1.000479
 H        -1.693283         2.187161        -0.271897
 H        -0.212685         1.219147         2.795304
 H        -0.963748        -0.229651         2.900969
 H        -5.341292         1.422965         0.910777
 H        -4.144051         2.618938         0.303639
 H        -4.231734        -0.429680        -0.272109
 H        -3.195705         0.888167        -1.101458
 H        -2.630568        -0.792932         1.357121
