19
Iteration:  4219charge 0 multiplicity 1
 O         0.187759        -0.335883         0.220100
 C        -0.884670         0.489580         0.738453
 C        -1.189215         1.976467         0.556185
 C        -2.234878         1.376159         1.598658
 C        -1.126694         0.608419         2.365228
 O        -3.498296         1.827424         1.933080
 C        -4.484153         1.252893         1.028324
 C        -3.742119         0.678714        -0.150975
 C        -2.425274         0.151750         0.707507
 H         0.006638        -1.257485         0.645074
 H        -0.432212         2.837446         0.833800
 H        -1.722036         2.259628        -0.449592
 H        -0.402011         0.964078         3.163684
 H        -1.474616        -0.432807         2.850986
 H        -4.964311         0.447494         1.532833
 H        -5.159820         2.161893         0.807508
 H        -4.301036        -0.107081        -0.534834
 H        -3.520131         1.402897        -0.973291
 H        -2.672076        -0.742978         1.180561
