19
Iteration:  2138
 O         0.159708        -0.360942         0.145772
 C        -0.888887         0.456316         0.765494
 C        -1.240965         1.964875         0.801125
 C        -2.284599         1.341657         1.613845
 C        -1.218674         0.524599         2.355454
 O        -3.485689         1.742542         2.029742
 C        -4.478103         1.487653         0.949111
 C        -3.598437         0.642631        -0.139984
 C        -2.377511         0.135438         0.569029
 H        -0.005557        -0.509787        -0.808549
 H        -0.437058         2.559460         1.308833
 H        -1.547015         2.450844        -0.172280
 H        -0.601256         1.110539         3.162718
 H        -1.493983        -0.351272         2.802180
 H        -5.296565         0.802935         1.171055
 H        -4.793383         2.476725         0.538535
 H        -4.315278        -0.092595        -0.451811
 H        -3.287917         1.381037        -0.875201
 H        -2.616411        -0.778312         1.184327
