19
Iteration:  1620
 O         0.101834        -0.255782         0.124831
 C        -0.966577         0.499779         0.751011
 C        -1.351443         1.914883         0.658084
 C        -2.357486         1.150474         1.736227
 C        -1.079714         0.537831         2.285532
 O        -3.608542         1.702591         2.085065
 C        -4.281295         1.689889         0.832686
 C        -3.564630         0.620358        -0.123009
 C        -2.427891        -0.026106         0.743004
 H         0.914163         0.245867         0.272611
 H        -0.671648         2.662590         1.068792
 H        -1.746156         2.209600        -0.388459
 H        -0.369409         1.142652         2.764658
 H        -0.987296        -0.413205         2.781131
 H        -5.307071         1.504088         1.075439
 H        -4.232890         2.672289         0.448413
 H        -4.261995        -0.114852        -0.537431
 H        -3.098314         1.137389        -1.034963
 H        -2.457823        -1.053126         1.227758
