19
Iteration:  4787charge 0 multiplicity 1
 O         0.152041        -0.215663         0.147226
 C        -0.940557         0.410614         0.790372
 C        -1.362735         1.883778         0.540026
 C        -2.274426         1.242617         1.687306
 C        -1.156069         0.623877         2.343586
 O        -3.444847         1.811182         1.974662
 C        -4.299627         1.653998         0.914642
 C        -3.743476         0.437325        -0.051178
 C        -2.421628        -0.052612         0.747364
 H         0.733826         0.469797        -0.161549
 H        -0.613856         2.618375         1.000382
 H        -1.762836         2.214062        -0.398599
 H        -0.387243         1.159461         2.896159
 H        -1.284387        -0.229351         3.022091
 H        -5.314883         1.414912         1.318818
 H        -4.408198         2.730221         0.319598
 H        -4.371220        -0.349340        -0.242392
 H        -3.467610         0.696710        -1.122031
 H        -2.717835        -0.857673         1.386885
