19
Iteration:  3824
 O         0.031333        -0.315078         0.171617
 C        -0.986272         0.444907         0.808418
 C        -1.246820         2.055160         0.561226
 C        -2.252816         1.308655         1.658426
 C        -1.027629         0.630984         2.374387
 O        -3.519534         1.733000         1.996870
 C        -4.425633         1.420605         0.845918
 C        -3.514186         0.546141        -0.138999
 C        -2.464273         0.099800         0.856835
 H        -0.405583        -0.471751        -0.721318
 H        -0.405516         2.595377         1.013755
 H        -1.637344         2.544394        -0.373416
 H        -0.373213         1.337461         2.974464
 H        -1.160159        -0.335117         2.901453
 H        -5.206891         0.810771         1.265182
 H        -4.627628         2.380191         0.317902
 H        -4.127105        -0.229901        -0.516013
 H        -3.137572         1.174123        -1.020950
 H        -2.758778        -0.773464         1.509020
