19
Iteration:  4788charge 0 multiplicity 1
 O         0.156718        -0.214729         0.151715
 C        -0.951133         0.409746         0.784654
 C        -1.347413         1.889737         0.542236
 C        -2.277265         1.240652         1.689197
 C        -1.164164         0.628078         2.335496
 O        -3.446737         1.807291         1.970389
 C        -4.296982         1.648151         0.920787
 C        -3.737275         0.433659        -0.049892
 C        -2.422306        -0.045634         0.750235
 H         0.703567         0.460617        -0.166304
 H        -0.599237         2.578769         1.001278
 H        -1.762270         2.219058        -0.388848
 H        -0.388300         1.151731         2.855514
 H        -1.320829        -0.212152         2.977592
 H        -5.319800         1.428006         1.333232
 H        -4.401889         2.733212         0.332437
 H        -4.394555        -0.320779        -0.208839
 H        -3.483873         0.694718        -1.143115
 H        -2.694881        -0.876187         1.415910
