19
Iteration:  2893
 O         0.180420        -0.038539         0.106946
 C        -0.883164         0.417987         0.788641
 C        -1.363777         1.873933         0.610819
 C        -2.342676         1.196717         1.680513
 C        -1.130819         0.474933         2.383955
 O        -3.559841         1.754855         2.064885
 C        -4.210282         1.734482         0.832121
 C        -3.675782         0.518406        -0.078218
 C        -2.481033        -0.030543         0.735629
 H         0.199063        -1.000975        -0.092718
 H        -0.613017         2.673444         0.998182
 H        -1.738831         1.981499        -0.446365
 H        -0.331895         1.075700         2.845757
 H        -1.340393        -0.446954         2.765325
 H        -5.222131         1.500742         1.076941
 H        -4.004299         2.637976         0.145735
 H        -4.490484        -0.188587        -0.153859
 H        -3.449958         0.858503        -1.082084
 H        -2.549957        -0.978613         1.392032
