19
Iteration:  4626
 O         0.183230        -0.363266         0.253624
 C        -0.853698         0.470799         0.797689
 C        -1.207858         1.969373         0.649634
 C        -2.296811         1.325506         1.547372
 C        -1.072652         0.584229         2.274389
 O        -3.457635         1.872084         1.978849
 C        -4.522247         1.438414         0.978242
 C        -3.701526         0.498225        -0.137837
 C        -2.538020         0.120924         0.740880
 H         0.067848        -0.215970        -0.736682
 H        -0.561705         2.587403         1.279370
 H        -1.370794         2.432494        -0.298011
 H        -0.280611         1.173384         2.730127
 H        -1.266276        -0.323220         2.820103
 H        -5.124497         0.820188         1.629334
 H        -5.069645         2.286752         0.714862
 H        -4.333443        -0.231015        -0.674706
 H        -3.333282         1.070879        -1.068589
 H        -2.681904        -0.834518         1.318965
