19
Iteration:  3680
 O         0.054712        -0.336066         0.085420
 C        -0.935048         0.439270         0.837783
 C        -1.334769         2.000510         0.625580
 C        -2.250798         1.268491         1.610044
 C        -1.061689         0.680744         2.437647
 O        -3.593922         1.696250         2.057987
 C        -4.339071         1.574180         0.829520
 C        -3.516282         0.550998        -0.156919
 C        -2.382655         0.035389         0.824484
 H        -0.488460        -0.449399        -0.775388
 H        -0.613798         2.731762         1.069935
 H        -1.578410         2.394424        -0.378609
 H        -0.394954         1.199705         3.105599
 H        -1.307474        -0.247836         2.888541
 H        -5.319767         1.147161         1.088164
 H        -4.400636         2.575716         0.330461
 H        -4.192921        -0.277882        -0.467643
 H        -3.166545         1.178022        -1.021652
 H        -2.726758        -0.819404         1.409141
