19
Iteration:   970charge 0 multiplicity 1
 O         0.093520        -0.395522         0.128352
 C        -0.829322         0.506878         0.807833
 C        -1.211731         2.033287         0.741123
 C        -2.293136         1.323211         1.613360
 C        -1.260260         0.469033         2.306729
 O        -3.499041         1.878999         2.004109
 C        -4.430659         1.344010         1.014309
 C        -3.602294         0.645390        -0.166946
 C        -2.411831         0.136473         0.611869
 H         0.967586         0.081452         0.258530
 H        -0.510299         2.683530         1.145586
 H        -1.621296         2.380557        -0.246799
 H        -0.531534         0.805449         3.052099
 H        -1.740730        -0.598224         2.586152
 H        -5.019820         0.547568         1.536796
 H        -5.136577         2.111313         0.665393
 H        -4.083574        -0.098018        -0.724666
 H        -3.307297         1.453360        -0.905908
 H        -2.719584        -0.803850         1.006771
