19
Iteration:  3000charge 0 multiplicity 1
 O         0.160500        -0.238722         0.065384
 C        -0.884865         0.456193         0.821335
 C        -1.221192         1.905935         0.631455
 C        -2.279759         1.217175         1.743271
 C        -1.073242         0.485641         2.345890
 O        -3.571873         1.873008         1.947616
 C        -4.501562         1.453958         0.933935
 C        -3.575044         0.656277        -0.177036
 C        -2.498154         0.089766         0.745346
 H         0.381006        -1.055512         0.622013
 H        -0.495672         2.628203         1.084141
 H        -1.580566         2.184320        -0.333062
 H        -0.339030         1.241378         2.939340
 H        -1.223308        -0.505046         2.838743
 H        -5.356016         0.958718         1.481630
 H        -5.019739         2.361801         0.628453
 H        -4.218361         0.087948        -0.784191
 H        -3.066847         1.436295        -0.789251
 H        -2.756227        -0.864995         1.201081
