19
Iteration:  3645
 O         0.198463        -0.193104         0.219116
 C        -0.956222         0.324259         0.809773
 C        -1.259561         1.931715         0.644362
 C        -2.281732         1.295711         1.659046
 C        -1.024583         0.530214         2.343115
 O        -3.551482         1.915777         1.979582
 C        -4.394736         1.433568         0.946714
 C        -3.646630         0.632489        -0.189481
 C        -2.513354         0.081698         0.689366
 H         0.020302        -0.952136        -0.445825
 H        -0.399620         2.422794         1.184042
 H        -1.492629         2.252699        -0.389919
 H        -0.222993         1.087836         2.761430
 H        -1.281125        -0.421288         2.839043
 H        -5.200380         0.758191         1.385292
 H        -4.905939         2.303497         0.524559
 H        -4.226345        -0.316858        -0.422738
 H        -3.519650         1.071908        -1.097982
 H        -2.860271        -0.716016         1.287095
