19
Iteration:   719charge 0 multiplicity 1
 O         0.139489        -0.212675         0.017004
 C        -0.970454         0.371668         0.796732
 C        -1.179959         1.826770         0.708203
 C        -2.252797         1.306438         1.740309
 C        -1.160244         0.417935         2.430694
 O        -3.576018         1.944585         1.914404
 C        -4.439347         1.271028         0.963360
 C        -3.537577         0.773546        -0.186662
 C        -2.497300         0.186881         0.704158
 H         1.003026         0.094883         0.433398
 H        -0.264515         2.449461         0.943868
 H        -1.608862         2.184108        -0.218386
 H        -0.521694         1.040607         3.038650
 H        -1.565496        -0.534210         2.901185
 H        -4.916956         0.335865         1.394287
 H        -5.276476         1.916270         0.709849
 H        -4.053911        -0.034003        -0.604582
 H        -3.149689         1.454355        -0.963747
 H        -2.874881        -0.664995         1.207786
