19
Iteration:   617
 O         0.020632        -0.146639        -0.004835
 C        -0.942854         0.354813         0.829692
 C        -1.223003         1.900353         0.777177
 C        -2.259586         1.221400         1.689634
 C        -1.133058         0.536275         2.532679
 O        -3.541162         1.820422         2.058891
 C        -4.345267         1.506619         0.850623
 C        -3.570911         0.608264        -0.253565
 C        -2.457408        -0.002687         0.640514
 H         0.878990         0.289270         0.083536
 H        -0.308005         2.531463         1.123617
 H        -1.753269         2.145695        -0.201672
 H        -0.431486         1.341411         3.010590
 H        -1.421051        -0.350829         3.074848
 H        -5.196345         0.916748         1.255714
 H        -4.659292         2.499086         0.389471
 H        -4.255608        -0.151534        -0.765344
 H        -3.285664         1.320096        -0.982175
 H        -2.722568        -1.028070         0.979806
