19
Iteration:  2409
 O         0.162294        -0.291002         0.230067
 C        -0.907690         0.420240         0.755029
 C        -1.230254         1.929377         0.722747
 C        -2.258606         1.254726         1.629780
 C        -1.180124         0.424386         2.349195
 O        -3.490181         1.994322         1.958731
 C        -4.393520         1.348779         1.005817
 C        -3.660930         0.730670        -0.159187
 C        -2.478707         0.078089         0.624943
 H         0.613415         0.091769        -0.592709
 H        -0.521735         2.617626         1.199604
 H        -1.730855         2.264657        -0.207866
 H        -0.299647         0.816921         2.866895
 H        -1.545857        -0.656530         2.747049
 H        -4.880580         0.515701         1.467437
 H        -5.151091         2.062777         0.616867
 H        -4.324392        -0.100212        -0.636983
 H        -3.476232         1.615344        -0.925558
 H        -2.777220        -0.913197         0.944393
