19
Iteration:  2326
 O         0.118706        -0.328189         0.222517
 C        -0.959836         0.404853         0.754898
 C        -1.255972         2.015976         0.739627
 C        -2.289148         1.283999         1.678662
 C        -1.020202         0.499128         2.349667
 O        -3.533933         1.710270         2.053358
 C        -4.439224         1.547074         0.824763
 C        -3.596242         0.691805        -0.177904
 C        -2.465533         0.108957         0.656624
 H        -0.112745        -0.472888        -0.666065
 H        -0.530172         2.725251         1.249414
 H        -1.522150         2.292149        -0.299489
 H        -0.165031         1.268149         2.816148
 H        -1.101742        -0.504971         2.906927
 H        -5.239715         0.925626         1.316966
 H        -4.872585         2.567636         0.606466
 H        -4.147161        -0.138254        -0.482530
 H        -3.358599         1.374899        -0.976666
 H        -2.654979        -0.979229         0.841064
