19
Iteration:   236
 O         0.222210        -0.031884         0.146442
 C        -0.915220         0.394571         0.806400
 C        -1.302414         1.889706         0.712194
 C        -2.315826         1.107941         1.682684
 C        -1.126282         0.265847         2.369577
 O        -3.612400         1.673960         2.093622
 C        -4.294521         1.805606         0.774423
 C        -3.641990         0.648829        -0.177384
 C        -2.530281         0.102891         0.635202
 H         0.910968        -0.262216         0.842062
 H        -0.598248         2.573128         1.024979
 H        -1.730013         2.033933        -0.352203
 H        -0.379379         0.823353         2.906649
 H        -1.170278        -0.797973         2.809902
 H        -5.351432         1.589292         0.946648
 H        -4.067935         2.837643         0.427815
 H        -4.369715        -0.224245        -0.470576
 H        -3.368669         1.301150        -1.066016
 H        -2.781512        -0.934104         1.088353
