19
Iteration:  1899charge 0 multiplicity 1
 O         0.132101        -0.160230         0.050187
 C        -0.971564         0.369076         0.765839
 C        -1.255737         1.839600         0.662359
 C        -2.280412         1.234745         1.738436
 C        -1.132188         0.521525         2.319533
 O        -3.584596         1.712960         2.100874
 C        -4.268508         1.672994         0.778416
 C        -3.590984         0.586183        -0.155298
 C        -2.518431        -0.012458         0.789582
 H         0.861214         0.512251         0.175540
 H        -0.489188         2.547153         1.185213
 H        -1.852775         2.157731        -0.237714
 H        -0.348766         1.264387         2.864526
 H        -1.324251        -0.308640         2.910649
 H        -5.306741         1.483709         1.092623
 H        -4.296357         2.708132         0.439358
 H        -4.439577        -0.139674        -0.311089
 H        -3.177688         1.025052        -1.054698
 H        -2.838471        -0.847536         1.364756
