19
Iteration:  1795
 O         0.128900        -0.279894         0.040782
 C        -0.908342         0.402792         0.740766
 C        -1.307843         1.929284         0.765965
 C        -2.284164         1.223835         1.682842
 C        -1.163005         0.527835         2.358892
 O        -3.512716         1.925519         2.015939
 C        -4.418851         1.380070         0.894560
 C        -3.566138         0.650365        -0.131816
 C        -2.462484         0.093832         0.697068
 H         0.930674        -0.257421         0.519041
 H        -0.421554         2.620103         0.898711
 H        -1.836969         2.298764        -0.108100
 H        -0.423530         1.082119         2.855073
 H        -1.600917        -0.409254         2.883700
 H        -5.130297         0.755115         1.506369
 H        -4.801634         2.384875         0.610187
 H        -4.170178         0.017750        -0.764177
 H        -3.152443         1.448499        -0.835481
 H        -2.587693        -0.969019         1.057607
