19
Iteration:  3279
 O         0.152114        -0.185980         0.132803
 C        -0.965043         0.347757         0.784697
 C        -1.183044         1.864086         0.715405
 C        -2.257320         1.290991         1.660213
 C        -1.131860         0.574006         2.382512
 O        -3.474956         1.879693         1.996859
 C        -4.469961         1.352731         0.907026
 C        -3.650568         0.714675        -0.224865
 C        -2.480875         0.061825         0.691773
 H         0.115055        -1.108799         0.019144
 H        -0.305108         2.434596         1.230622
 H        -1.483576         2.255918        -0.259675
 H        -0.308382         1.223081         2.694094
 H        -1.450453        -0.302133         3.025695
 H        -5.122093         0.541254         1.357835
 H        -5.171924         2.187486         0.686300
 H        -4.116363         0.103745        -0.942966
 H        -3.303007         1.708626        -0.596079
 H        -2.684768        -0.812406         1.340647
