19
Iteration:  1094charge 0 multiplicity 1
 O         0.139917        -0.268166         0.090581
 C        -0.908797         0.387992         0.798173
 C        -1.325913         1.975169         0.637932
 C        -2.351012         1.207592         1.702888
 C        -1.145602         0.539696         2.445337
 O        -3.472430         1.716712         2.141014
 C        -4.325703         1.596830         0.750216
 C        -3.586986         0.629496        -0.247343
 C        -2.521487         0.051823         0.747307
 H         0.837764         0.440985        -0.020995
 H        -0.599124         2.760680         0.959798
 H        -1.603196         2.257752        -0.335448
 H        -0.440317         1.277842         3.059906
 H        -1.482898        -0.423653         2.763246
 H        -5.266731         1.198794         1.234866
 H        -4.548853         2.661188         0.579391
 H        -4.243870        -0.282975        -0.392090
 H        -3.137495         0.922133        -1.133789
 H        -2.872681        -0.864761         1.202826
