19
Iteration:  3559
 O         0.032519        -0.374731         0.117051
 C        -0.865238         0.435564         0.745809
 C        -1.192944         1.973909         0.697799
 C        -2.288297         1.360255         1.666987
 C        -1.078027         0.546429         2.284093
 O        -3.631414         1.891931         1.953949
 C        -4.517896         1.312079         0.926313
 C        -3.562006         0.738188        -0.105958
 C        -2.364086         0.122229         0.739672
 H         0.694327        -0.815103         0.752970
 H        -0.344422         2.557943         1.105669
 H        -1.520917         2.193553        -0.296971
 H        -0.237602         1.012589         2.654622
 H        -1.346601        -0.290244         2.881370
 H        -5.084579         0.486285         1.337064
 H        -5.271852         2.002680         0.708795
 H        -3.889209        -0.124593        -0.756925
 H        -3.030304         1.463038        -0.629405
 H        -2.637025        -0.820198         1.277318
