19
Iteration:  4028charge 0 multiplicity 1
 O         0.113958        -0.102694         0.013346
 C        -0.939448         0.396416         0.783539
 C        -1.337695         1.961790         0.651738
 C        -2.235465         1.333315         1.651059
 C        -1.117886         0.592677         2.472551
 O        -3.510849         1.849655         1.967946
 C        -4.290725         1.522797         0.785841
 C        -3.646657         0.363564        -0.020704
 C        -2.414201        -0.000644         0.770429
 H         0.042915        -1.064346         0.004656
 H        -0.727804         2.728229         1.170063
 H        -1.855612         2.133517        -0.346544
 H        -0.321703         1.052643         3.135599
 H        -1.398376        -0.354609         2.970469
 H        -5.407391         1.504543         1.277843
 H        -4.306530         2.442984         0.135606
 H        -4.450188        -0.476753         0.044386
 H        -3.439068         0.783910        -1.008269
 H        -2.657431        -0.933167         1.409524
