19
Iteration:  1256charge 0 multiplicity 1
 O        -0.013589        -0.315481         0.018835
 C        -0.912511         0.428594         0.857541
 C        -1.264849         1.975005         0.758545
 C        -2.294470         1.360572         1.686246
 C        -1.179137         0.555600         2.393331
 O        -3.522615         1.675801         1.987986
 C        -4.344722         1.556894         0.872788
 C        -3.545528         0.618849        -0.139218
 C        -2.356300         0.061078         0.690280
 H         0.713158         0.238755        -0.124129
 H        -0.573655         2.711634         1.307554
 H        -1.476742         2.429554        -0.199280
 H        -0.510719         1.213467         3.116076
 H        -1.432852        -0.408267         2.805275
 H        -5.244006         0.829816         1.226781
 H        -4.710493         2.465287         0.395053
 H        -4.140435        -0.378909        -0.434004
 H        -3.291082         1.179429        -1.070456
 H        -2.650651        -0.934186         1.066629
