19
Iteration:  1480charge 0 multiplicity 1
 O         0.049204        -0.303315         0.177521
 C        -0.906928         0.501397         0.789413
 C        -1.257194         1.958342         0.673786
 C        -2.330204         1.204131         1.624196
 C        -1.077968         0.547389         2.265859
 O        -3.548087         1.676083         2.133392
 C        -4.341696         1.631696         0.850599
 C        -3.597459         0.633189        -0.154640
 C        -2.465340         0.053637         0.688155
 H         0.905415         0.185058         0.404973
 H        -0.658446         2.684420         1.158452
 H        -1.630835         2.257014        -0.315147
 H        -0.414869         1.181817         2.797100
 H        -1.106490        -0.441472         2.820704
 H        -5.248031         0.984281         1.050307
 H        -4.820093         2.550936         0.429014
 H        -4.238581        -0.122149        -0.554131
 H        -3.080284         1.065322        -1.054469
 H        -2.673043        -0.876747         1.079383
