19
Iteration:  2380
 O         0.167403        -0.233550         0.152192
 C        -0.905948         0.339639         0.793861
 C        -1.094612         1.840139         0.770754
 C        -2.251763         1.308834         1.612231
 C        -1.165681         0.491583         2.412118
 O        -3.530166         1.898003         1.941268
 C        -4.476255         1.341078         0.997400
 C        -3.667499         0.732683        -0.198922
 C        -2.514230         0.110426         0.687394
 H         0.182839         0.103034        -0.735826
 H        -0.273138         2.460112         1.116179
 H        -1.377438         2.260521        -0.183881
 H        -0.250368         1.066378         2.738809
 H        -1.440076        -0.395300         2.768837
 H        -5.151258         0.572907         1.502721
 H        -5.123182         2.205258         0.658168
 H        -4.130162         0.139627        -0.908569
 H        -3.440845         1.622497        -0.834673
 H        -2.940243        -0.842471         1.124867
