19
Iteration:   702charge 0 multiplicity 1
 O         0.091569        -0.251431         0.067541
 C        -0.895572         0.360558         0.795129
 C        -1.142113         1.987080         0.722772
 C        -2.279573         1.375284         1.575095
 C        -1.289054         0.480758         2.377479
 O        -3.485065         1.895066         1.980900
 C        -4.442584         1.268856         1.003102
 C        -3.614569         0.690594        -0.169421
 C        -2.405097         0.092879         0.667807
 H         0.922830        -0.130222         0.640367
 H        -0.567548         2.564219         1.394532
 H        -1.369014         2.361763        -0.348223
 H        -0.357846         0.714923         2.962911
 H        -1.784932        -0.388242         2.798904
 H        -4.996991         0.462083         1.492741
 H        -5.176545         2.031418         0.683912
 H        -4.140980         0.024422        -0.928603
 H        -3.342792         1.684675        -0.673740
 H        -2.730704        -0.893828         1.164255
