19
Iteration:  2703
 O         0.203440        -0.372724         0.192664
 C        -0.899883         0.408786         0.744149
 C        -1.146047         1.965857         0.645292
 C        -2.341965         1.324753         1.623576
 C        -1.196788         0.519905         2.378461
 O        -3.545207         1.856356         2.070115
 C        -4.436392         1.327715         0.959325
 C        -3.620374         0.749439        -0.168768
 C        -2.423715         0.148418         0.634566
 H        -0.052222        -0.181532        -0.726797
 H        -0.250419         2.557142         1.066720
 H        -1.542548         2.399936        -0.319655
 H        -0.615277         1.020836         3.050527
 H        -1.457142        -0.534194         2.680286
 H        -5.104099         0.619303         1.516892
 H        -5.177454         2.122015         0.810724
 H        -4.114371        -0.006915        -0.825173
 H        -3.215249         1.422285        -0.902668
 H        -2.877351        -0.698429         1.285240
