19
Iteration:  2085
 O         0.191357        -0.303361         0.197729
 C        -0.940344         0.340824         0.790944
 C        -1.220313         1.934098         0.690620
 C        -2.266475         1.283562         1.670446
 C        -1.127255         0.410344         2.343314
 O        -3.548254         1.944979         1.922667
 C        -4.455358         1.308245         1.067601
 C        -3.583748         0.813651        -0.201469
 C        -2.487767         0.135153         0.659757
 H         0.320110         0.040723        -0.713316
 H        -0.552756         2.661283         1.260929
 H        -1.667056         2.369900        -0.275349
 H        -0.293418         0.954813         2.941259
 H        -1.563587        -0.349667         2.932926
 H        -5.043914         0.414709         1.282454
 H        -5.188747         2.043409         0.747725
 H        -4.186105        -0.071453        -0.848441
 H        -3.125313         1.656651        -0.802090
 H        -2.673377        -0.898108         0.931936
