19
Iteration:  1992charge 0 multiplicity 1
 O         0.000840        -0.218159         0.033949
 C        -0.913732         0.353974         0.819217
 C        -1.278513         1.877645         0.669203
 C        -2.326964         1.235771         1.740721
 C        -1.094725         0.574536         2.396595
 O        -3.510588         1.756549         2.084006
 C        -4.308727         1.485084         0.810861
 C        -3.535647         0.682295        -0.210284
 C        -2.464543         0.058125         0.705531
 H         0.809976         0.143909         0.433822
 H        -0.637107         2.608295         1.061394
 H        -1.812989         2.223017        -0.164037
 H        -0.481740         1.288605         2.884434
 H        -1.244596        -0.445932         3.117125
 H        -5.402599         1.233373         1.027542
 H        -4.505213         2.634930         0.522164
 H        -4.235017        -0.074421        -0.413308
 H        -3.241687         1.313398        -1.073240
 H        -2.684540        -0.959502         1.165824
