19
Iteration:   548
 O         0.127412        -0.224449         0.095397
 C        -0.826480         0.420585         0.814416
 C        -1.341616         1.943704         0.723045
 C        -2.302436         1.158918         1.677334
 C        -1.142287         0.574299         2.392202
 O        -3.573588         1.589318         2.082188
 C        -4.225894         1.710579         0.751357
 C        -3.687527         0.626953        -0.108208
 C        -2.447257         0.011247         0.681380
 H         0.565423         0.445092        -0.380181
 H        -0.728919         2.692504         1.180795
 H        -1.837424         2.373768        -0.235073
 H        -0.552593         1.313775         2.904483
 H        -1.442275        -0.386601         2.963510
 H        -5.276536         1.481644         0.917061
 H        -4.075091         2.731135         0.388147
 H        -4.492736        -0.069308        -0.230488
 H        -3.310476         0.932763        -1.138733
 H        -2.690493        -0.925983         1.249450
