19
Iteration:  2441charge 0 multiplicity 1
 O         0.117242        -0.325187         0.245826
 C        -0.903606         0.427422         0.745810
 C        -1.107728         1.980314         0.703156
 C        -2.263855         1.262453         1.568388
 C        -1.126969         0.508318         2.303428
 O        -3.535493         1.786906         2.049688
 C        -4.461414         1.412154         0.960290
 C        -3.652369         0.709887        -0.176686
 C        -2.498790         0.164599         0.659516
 H         0.425647        -0.095404        -0.601099
 H        -0.385969         2.623430         1.299884
 H        -1.486665         2.457218        -0.280764
 H        -0.319698         0.927749         2.859852
 H        -1.379518        -0.547032         2.938668
 H        -5.179658         0.714558         1.371786
 H        -5.052616         2.266307         0.569609
 H        -4.251862        -0.216225        -0.566957
 H        -3.490412         1.468172        -1.000372
 H        -2.672287        -0.772061         1.153868
