19
Iteration:  2398
 O         0.161010        -0.259883         0.212797
 C        -0.890098         0.390990         0.795989
 C        -1.198969         1.880613         0.670074
 C        -2.318426         1.198260         1.677796
 C        -1.111943         0.380576         2.361500
 O        -3.462960         1.962615         1.904434
 C        -4.483897         1.338761         1.031198
 C        -3.625042         0.772128        -0.194554
 C        -2.508482         0.177265         0.633595
 H         0.273766         0.290203        -0.565856
 H        -0.495259         2.585899         1.144955
 H        -1.427752         2.337544        -0.318250
 H        -0.556808         1.080782         2.950872
 H        -1.471389        -0.582828         3.046035
 H        -4.937168         0.550193         1.588612
 H        -5.253769         2.127871         0.926063
 H        -4.253015        -0.104772        -0.675244
 H        -3.242092         1.353072        -1.158696
 H        -2.820383        -0.745690         1.113330
