19
Iteration:  2385
 O         0.179351        -0.233386         0.152161
 C        -0.937544         0.353905         0.844801
 C        -1.096448         1.825664         0.753108
 C        -2.270377         1.299555         1.646557
 C        -1.151006         0.502196         2.379044
 O        -3.494608         1.882605         1.902186
 C        -4.509565         1.375208         1.035151
 C        -3.646750         0.728728        -0.241841
 C        -2.531090         0.146401         0.687150
 H         0.229305         0.157688        -0.758059
 H        -0.279907         2.447962         1.208694
 H        -1.473274         2.105585        -0.288527
 H        -0.366964         1.065918         2.876350
 H        -1.273176        -0.664274         2.800207
 H        -5.037933         0.542805         1.494537
 H        -5.186217         2.159572         0.777988
 H        -4.222357        -0.049750        -0.909670
 H        -3.402128         1.652356        -0.765950
 H        -2.889389        -0.785106         1.084726
