19
Iteration:  1561charge 0 multiplicity 1
 O         0.072948        -0.235669         0.027203
 C        -0.941125         0.442968         0.744219
 C        -1.296616         1.965604         0.787142
 C        -2.320703         1.264977         1.767004
 C        -1.086438         0.421128         2.369869
 O        -3.598165         1.731413         2.042501
 C        -4.314218         1.672254         0.707667
 C        -3.614737         0.539831        -0.124411
 C        -2.394164         0.064162         0.779497
 H         0.791307         0.490270        -0.070341
 H        -0.481833         2.557927         1.327651
 H        -1.553741         2.536450        -0.079504
 H        -0.226458         1.063303         2.797656
 H        -1.482811        -0.498898         2.744072
 H        -5.301855         1.322709         0.952663
 H        -4.170533         2.670890         0.242664
 H        -4.292025        -0.291948         0.176378
 H        -3.519343         0.557508        -1.172149
 H        -2.414669        -0.998830         1.227129
