19
Iteration:  1505
 O         0.129534        -0.226338         0.044364
 C        -0.939645         0.370400         0.764961
 C        -1.330821         1.875479         0.646558
 C        -2.280979         1.280019         1.680045
 C        -1.121582         0.516768         2.411340
 O        -3.593634         1.670768         2.082321
 C        -4.309380         1.563325         0.870885
 C        -3.586042         0.645602        -0.148592
 C        -2.440941         0.144359         0.724408
 H         0.884024         0.080405         0.549616
 H        -0.389872         2.480011         0.842263
 H        -1.874776         2.276371        -0.150905
 H        -0.480821         1.258896         2.970001
 H        -1.339228        -0.296063         3.194547
 H        -5.410008         1.421457         0.987868
 H        -4.333592         2.557901         0.336343
 H        -4.135252        -0.175730        -0.593167
 H        -3.257762         1.153923        -1.020706
 H        -2.791603        -0.831496         1.095636
