19
Iteration:  4144
 O         0.065294        -0.136830         0.049157
 C        -0.910285         0.437279         0.851304
 C        -1.177162         1.939593         0.662225
 C        -2.295514         1.302666         1.675591
 C        -1.069684         0.573777         2.371390
 O        -3.492602         1.958076         1.943323
 C        -4.400433         1.435374         0.858463
 C        -3.673108         0.420851        -0.103478
 C        -2.459257         0.029753         0.767411
 H         0.015613        -1.064338         0.095688
 H        -0.413759         2.513446         1.201000
 H        -1.603627         2.219195        -0.318729
 H        -0.330616         1.136577         2.953137
 H        -1.389833        -0.380130         2.901407
 H        -5.140066         0.867873         1.423339
 H        -4.961226         2.179561         0.301909
 H        -4.335471        -0.392834        -0.175510
 H        -3.211735         0.794008        -1.002523
 H        -2.627543        -0.870653         1.373631
