19
Iteration:  4817
 O         0.194510        -0.292658         0.198549
 C        -0.879550         0.431316         0.783590
 C        -1.204357         1.949201         0.571268
 C        -2.266493         1.330739         1.717996
 C        -1.017552         0.577504         2.277588
 O        -3.570660         1.804153         2.065710
 C        -4.443899         1.561164         0.811674
 C        -3.819676         0.411220        -0.065080
 C        -2.453736         0.111751         0.752845
 H         0.388183        -0.007869        -0.723509
 H        -0.415418         2.561427         1.115719
 H        -1.541673         2.275044        -0.422619
 H        -0.179311         1.232288         2.672441
 H        -1.295515        -0.413056         2.823969
 H        -5.441307         1.427377         1.189742
 H        -4.398043         2.479779         0.352643
 H        -4.495679        -0.551078        -0.233489
 H        -3.580190         0.775039        -1.052770
 H        -2.661887        -0.643074         1.493940
