19
Iteration:  3157charge 0 multiplicity 1
 O         0.247361        -0.099276         0.132998
 C        -0.965228         0.374064         0.702154
 C        -1.348661         1.896039         0.678220
 C        -2.331815         1.195632         1.656898
 C        -1.065713         0.534530         2.340739
 O        -3.583037         1.789019         2.053907
 C        -4.307652         1.722828         0.812545
 C        -3.658077         0.446698        -0.041650
 C        -2.502359         0.030323         0.697329
 H         0.480039        -0.904168         0.621846
 H        -0.468806         2.454698         1.043431
 H        -1.649055         2.337445        -0.328345
 H        -0.210780         1.018422         2.799479
 H        -1.304562        -0.509657         2.796392
 H        -5.372831         1.496118         1.152523
 H        -3.991621         2.618966         0.317016
 H        -4.382480        -0.314519        -0.326419
 H        -3.409027         0.987170        -0.913807
 H        -2.831200        -0.819109         1.325240
