19
Iteration:  3879charge 0 multiplicity 1
 O         0.145451        -0.177442         0.130915
 C        -0.936675         0.434543         0.790465
 C        -1.264714         1.902974         0.704346
 C        -2.210531         1.293562         1.610810
 C        -1.139624         0.520617         2.382636
 O        -3.422189         1.957842         1.819830
 C        -4.400753         1.298557         1.010607
 C        -3.702096         0.572293        -0.133542
 C        -2.481851         0.082011         0.734850
 H         0.252747        -0.882381         0.748952
 H        -0.577220         2.650955         1.157289
 H        -1.661668         2.267513        -0.275875
 H        -0.329839         1.205553         2.779003
 H        -1.594890        -0.366868         2.842250
 H        -5.116130         0.633629         1.605740
 H        -5.127807         2.117745         0.650827
 H        -4.453148         0.002918        -0.599636
 H        -3.400687         1.337097        -0.942785
 H        -2.582714        -0.901184         1.244286
