19
Iteration:  1615
 O         0.086823        -0.238265         0.125209
 C        -0.967659         0.441194         0.740748
 C        -1.359142         1.899327         0.655251
 C        -2.350615         1.164835         1.748801
 C        -1.069993         0.577003         2.305710
 O        -3.592739         1.692318         2.114585
 C        -4.258693         1.693531         0.807397
 C        -3.535811         0.628975        -0.122206
 C        -2.449723        -0.049093         0.670349
 H         0.860815         0.398645         0.282188
 H        -0.717736         2.699455         1.059076
 H        -1.813689         2.161149        -0.248406
 H        -0.313602         1.190824         2.955866
 H        -0.992960        -0.450767         2.776668
 H        -5.371404         1.460650         0.937605
 H        -4.339692         2.786076         0.429144
 H        -4.344260        -0.079570        -0.386951
 H        -3.101040         1.005098        -0.997280
 H        -2.543126        -0.919848         1.318780
