19
Iteration:   578
 O         0.014763        -0.199062         0.080740
 C        -0.952904         0.477833         0.764006
 C        -1.219732         2.044400         0.773354
 C        -2.248924         1.237703         1.795498
 C        -1.054869         0.374078         2.336320
 O        -3.665634         1.802503         2.039841
 C        -4.315214         1.606626         0.757716
 C        -3.599121         0.456657        -0.129579
 C        -2.416078         0.008297         0.718753
 H         0.596379         0.563461        -0.286831
 H        -0.429089         2.599264         1.253251
 H        -1.689316         2.731263         0.192716
 H        -0.262225         0.785643         2.879629
 H        -1.339422        -0.623936         2.673052
 H        -5.390847         1.471822         0.874084
 H        -4.154219         2.475807         0.148454
 H        -4.229095        -0.356761        -0.466317
 H        -3.103149         0.894913        -1.078590
 H        -2.576813        -0.871501         1.326946
