19
Iteration:  1101
 O         0.074147        -0.229039         0.084775
 C        -0.898636         0.398041         0.885399
 C        -1.354070         1.943179         0.618810
 C        -2.267509         1.238036         1.679229
 C        -1.176581         0.544584         2.426980
 O        -3.458273         1.688695         2.111763
 C        -4.272504         1.589688         0.795851
 C        -3.582013         0.607145        -0.227386
 C        -2.526367         0.061976         0.735353
 H         0.755219         0.522648        -0.054630
 H        -0.796262         2.717646         1.082400
 H        -1.763025         2.134950        -0.427031
 H        -0.529505         1.046011         3.030942
 H        -1.368399        -0.426565         2.997958
 H        -5.235358         1.199533         1.093158
 H        -4.328702         2.583090         0.350012
 H        -4.307030        -0.093849        -0.557350
 H        -3.070025         1.001209        -1.195808
 H        -2.941529        -0.842175         1.204484
