19
Iteration:  4888
 O         0.082448        -0.232152        -0.001826
 C        -0.888220         0.431415         0.794425
 C        -1.234243         1.832450         0.632137
 C        -2.302958         1.336692         1.679655
 C        -1.024656         0.652359         2.381284
 O        -3.549286         1.781052         1.997430
 C        -4.434835         1.472588         0.829182
 C        -3.643809         0.616571        -0.082449
 C        -2.459701         0.074473         0.898853
 H         0.487435        -1.052716         0.363508
 H        -0.424702         2.442271         0.951486
 H        -1.722336         2.001654        -0.347855
 H        -0.143014         1.188476         2.648548
 H        -1.284257        -0.185907         2.951763
 H        -5.370558         1.058132         1.335728
 H        -4.652184         2.507582         0.243240
 H        -4.156569        -0.225798        -0.395780
 H        -3.469104         1.206943        -1.014547
 H        -2.599985        -0.918677         1.369703
