19
Iteration:  4847
 O         0.100013        -0.272303         0.181535
 C        -0.927514         0.441531         0.766136
 C        -1.375639         1.936219         0.598408
 C        -2.262868         1.232254         1.680767
 C        -1.075029         0.649429         2.331077
 O        -3.469727         1.837995         2.040838
 C        -4.368909         1.508708         0.838022
 C        -3.621913         0.517294        -0.073964
 C        -2.374054         0.041411         0.715883
 H        -0.350057        -0.848022        -0.525888
 H        -0.756459         2.680667         1.066704
 H        -1.681125         2.400563        -0.366310
 H        -0.335426         1.366782         2.732086
 H        -1.279424        -0.263694         2.919480
 H        -5.302353         1.111334         1.293679
 H        -4.567232         2.508014         0.408894
 H        -4.461183        -0.325213        -0.242386
 H        -3.304023         1.036312        -0.937704
 H        -2.631101        -0.842427         1.455529
