19
Iteration:  2962
 O        -0.002036        -0.185043         0.096724
 C        -0.951021         0.462132         0.772426
 C        -1.193044         1.949602         0.639800
 C        -2.280584         1.331717         1.748202
 C        -1.101567         0.557748         2.420900
 O        -3.531071         1.694271         2.034731
 C        -4.328532         1.548853         0.882088
 C        -3.571538         0.567197        -0.209470
 C        -2.432221         0.042368         0.709006
 H        -0.042970        -1.106380         0.251100
 H        -0.461191         2.621124         1.061333
 H        -1.649826         2.229705        -0.367210
 H        -0.460885         1.204328         2.892057
 H        -1.217846        -0.384618         2.997261
 H        -5.311941         0.957543         1.105099
 H        -4.518834         2.579683         0.454416
 H        -4.231174        -0.273735        -0.646468
 H        -3.272384         1.192020        -1.048594
 H        -2.664413        -0.881204         1.277742
