19
Iteration:  1641charge 0 multiplicity 1
 O         0.087169        -0.287352         0.075725
 C        -0.883307         0.431456         0.777893
 C        -1.294147         1.997334         0.733290
 C        -2.256640         1.271109         1.682104
 C        -1.053299         0.533914         2.366477
 O        -3.547111         1.681506         2.093753
 C        -4.372034         1.572262         0.797568
 C        -3.656592         0.567292        -0.157915
 C        -2.489764         0.106743         0.660323
 H         0.986376        -0.015095         0.475438
 H        -0.665042         2.735404         1.215185
 H        -1.771130         2.447188        -0.211670
 H        -0.383766         0.989833         3.032957
 H        -1.303200        -0.374322         2.854089
 H        -5.346101         1.365262         1.072553
 H        -4.386704         2.542109         0.391213
 H        -4.303878        -0.265266        -0.433382
 H        -3.335742         1.055598        -1.112241
 H        -2.728679        -0.759805         1.318914
