19
Iteration:   985charge 0 multiplicity 1
 O         0.028025        -0.354489         0.149143
 C        -0.966263         0.378263         0.719531
 C        -1.191426         1.982587         0.771233
 C        -2.242880         1.343170         1.702346
 C        -1.123817         0.447872         2.346996
 O        -3.583587         1.949768         1.987947
 C        -4.458243         1.238011         0.962585
 C        -3.550342         0.722985        -0.208545
 C        -2.369234         0.188436         0.579970
 H         0.971324         0.004463         0.221378
 H        -0.481594         2.583848         1.426604
 H        -1.487077         2.471040        -0.170843
 H        -0.286669         1.043918         2.904799
 H        -1.388368        -0.415924         2.983361
 H        -4.978426         0.429870         1.565828
 H        -5.147359         2.030920         0.629128
 H        -4.245146        -0.065865        -0.635928
 H        -3.412653         1.365120        -1.054653
 H        -2.498352        -0.788586         1.076196
