19
Iteration:  4126
 O         0.187057        -0.172268         0.053066
 C        -0.944409         0.384115         0.712221
 C        -1.249854         1.940266         0.707059
 C        -2.240434         1.372274         1.653935
 C        -1.059055         0.566391         2.332005
 O        -3.523072         1.834874         1.930544
 C        -4.424614         1.516566         0.846356
 C        -3.680660         0.427627        -0.053718
 C        -2.539803         0.064535         0.857710
 H         0.492592        -0.932518         0.489466
 H        -0.569048         2.480761         1.348302
 H        -1.607565         2.341348        -0.248669
 H        -0.291683         1.188945         2.780363
 H        -1.182277        -0.243645         2.977202
 H        -5.454145         1.152097         1.278355
 H        -4.523239         2.441542         0.245146
 H        -4.296584        -0.640527        -0.247883
 H        -3.424193         0.967156        -1.022463
 H        -2.763481        -0.812961         1.620077
