19
Iteration:  4376charge 0 multiplicity 1
 O         0.142745        -0.056044         0.153983
 C        -0.893915         0.412456         0.858788
 C        -1.414343         1.855793         0.666682
 C        -2.249816         1.227673         1.603581
 C        -1.058089         0.607049         2.348673
 O        -3.497881         1.759257         2.036330
 C        -4.255819         1.676244         0.807675
 C        -3.691691         0.459051        -0.095660
 C        -2.514312        -0.067837         0.758120
 H        -0.057101        -0.887139        -0.365754
 H        -0.681915         2.656654         0.933041
 H        -1.850255         2.015300        -0.346655
 H        -0.234431         1.357111         2.614730
 H        -1.187343        -0.267419         3.091314
 H        -5.404630         1.609245         0.910534
 H        -4.140161         2.532354         0.165975
 H        -4.523064        -0.365841        -0.114955
 H        -3.405768         0.829595        -1.018915
 H        -2.556462        -0.974581         1.352999
