19
Iteration:  2907charge 0 multiplicity 1
 O         0.172007        -0.033306         0.153133
 C        -0.968966         0.438020         0.787053
 C        -1.320926         1.866438         0.645471
 C        -2.307385         1.189405         1.730338
 C        -1.070790         0.479901         2.322008
 O        -3.448792         1.789192         2.042970
 C        -4.295029         1.647990         0.758468
 C        -3.704496         0.503554        -0.060344
 C        -2.478979        -0.012214         0.739345
 H        -0.098747        -0.901998        -0.152156
 H        -0.724213         2.604857         1.194071
 H        -1.680149         2.221216        -0.360519
 H        -0.431605         1.046080         2.878106
 H        -1.289211        -0.474800         2.897825
 H        -5.424884         1.814589         0.912096
 H        -4.220541         2.647404         0.306837
 H        -4.378250        -0.442557        -0.213576
 H        -3.481006         0.901608        -1.027171
 H        -2.738949        -1.064013         0.998981
