19
Iteration:  1393
 O         0.062840        -0.338193         0.014205
 C        -0.897010         0.426623         0.838375
 C        -1.303078         1.923403         0.803610
 C        -2.335412         1.194897         1.666512
 C        -1.154550         0.581188         2.399652
 O        -3.498095         1.892519         1.951032
 C        -4.351278         1.380525         0.919216
 C        -3.537110         0.718068        -0.209669
 C        -2.457763         0.099218         0.718473
 H         0.974379         0.124642        -0.050183
 H        -0.750883         2.626136         1.329574
 H        -1.597776         2.339198        -0.178773
 H        -0.441787         1.195129         2.963473
 H        -1.328563        -0.494994         2.813245
 H        -5.009229         0.629841         1.462297
 H        -5.053302         2.251137         0.673733
 H        -4.048277        -0.109381        -0.542093
 H        -3.274480         1.290157        -1.104367
 H        -2.737377        -0.812288         1.184201
