19
Iteration:   328charge 0 multiplicity 1
 O         0.134627        -0.194433         0.144146
 C        -0.948987         0.408528         0.825267
 C        -1.221541         1.887089         0.792515
 C        -2.330376         1.198927         1.656237
 C        -1.177941         0.414495         2.343845
 O        -3.516179         1.886324         1.990789
 C        -4.406571         1.436760         0.872754
 C        -3.532934         0.750841        -0.185362
 C        -2.470977         0.048690         0.668108
 H        -0.014094         0.188634        -0.687975
 H        -0.346049         2.347589         1.412336
 H        -1.505203         2.461377        -0.031569
 H        -0.573799         1.036004         3.070966
 H        -1.317315        -0.540450         2.771468
 H        -4.988398         0.620572         1.367352
 H        -5.013208         2.184912         0.456636
 H        -4.044369         0.143168        -0.825931
 H        -3.062948         1.506201        -0.777419
 H        -2.621295        -0.963949         1.041558
