19
Iteration:  4251charge 0 multiplicity 1
 O         0.202805        -0.143479         0.195561
 C        -0.992252         0.342794         0.726320
 C        -1.186222         1.839558         0.632706
 C        -2.307895         1.293675         1.596169
 C        -1.075302         0.585292         2.373464
 O        -3.466747         1.924878         1.908118
 C        -4.499291         1.378380         1.066223
 C        -3.700389         0.636263        -0.143065
 C        -2.484381         0.014912         0.664167
 H         0.616517        -0.745030         0.783221
 H        -0.351206         2.544923         1.044995
 H        -1.623965         2.229501        -0.352264
 H        -0.223969         1.238240         2.751362
 H        -1.344633        -0.356789         2.985251
 H        -5.157844         0.720240         1.613374
 H        -5.067946         2.313224         0.644014
 H        -4.241713        -0.096163        -0.627124
 H        -3.423531         1.301964        -1.004737
 H        -2.671511        -0.937941         1.139234
