19
Iteration:  2027
 O         0.141970        -0.338284         0.115825
 C        -0.899360         0.411850         0.760736
 C        -1.183104         1.965814         0.724790
 C        -2.253065         1.286534         1.678594
 C        -1.141251         0.440150         2.317873
 O        -3.566876         1.877697         2.055022
 C        -4.498981         1.416164         0.867002
 C        -3.619913         0.660031        -0.169612
 C        -2.442037         0.145182         0.741419
 H         0.830854         0.289496        -0.088698
 H        -0.498913         2.661788         1.232050
 H        -1.672329         2.461230        -0.097758
 H        -0.391706         0.997409         2.882440
 H        -1.337679        -0.601536         2.708825
 H        -5.322563         0.803217         1.265194
 H        -4.752848         2.493456         0.546357
 H        -4.151726        -0.226224        -0.631553
 H        -3.382416         1.243916        -1.067470
 H        -2.734239        -0.867947         1.104313
