19
Iteration:   274
 O         0.119606        -0.256704         0.104778
 C        -0.899650         0.548435         0.791975
 C        -1.148700         2.016816         0.822961
 C        -2.351150         1.141545         1.669796
 C        -1.160900         0.469087         2.386724
 O        -3.584615         1.633608         2.105959
 C        -4.398486         1.644168         0.880696
 C        -3.606990         0.633571        -0.253253
 C        -2.375876         0.099733         0.516763
 H        -0.140179        -1.042413         0.502529
 H        -0.583982         2.746056         1.592678
 H        -1.403633         2.463904        -0.084856
 H        -0.519116         1.235180         2.881138
 H        -1.375975        -0.455703         2.811283
 H        -5.410173         1.341467         1.171735
 H        -4.410583         2.535913         0.300545
 H        -4.105822        -0.164057        -0.634250
 H        -3.372659         1.260081        -1.063779
 H        -2.598346        -0.798532         0.996355
