19
Iteration:  4217charge 0 multiplicity 1
 O         0.171476        -0.330249         0.228072
 C        -0.897652         0.474274         0.741093
 C        -1.174933         1.984026         0.544419
 C        -2.204736         1.377442         1.613591
 C        -1.114814         0.607071         2.372688
 O        -3.512351         1.821392         1.923473
 C        -4.492127         1.256451         1.029313
 C        -3.729944         0.669386        -0.148651
 C        -2.423891         0.164414         0.689366
 H        -0.027329        -1.223322         0.593041
 H        -0.443512         2.825933         0.849209
 H        -1.727977         2.221650        -0.403296
 H        -0.383865         1.004125         3.141942
 H        -1.441250        -0.396622         2.836274
 H        -5.023141         0.446226         1.523281
 H        -5.215901         2.164191         0.837869
 H        -4.250696        -0.171723        -0.508060
 H        -3.504045         1.472732        -0.920822
 H        -2.725106        -0.792841         1.151820
