19
Iteration:  2364
 O         0.165840        -0.326392         0.151544
 C        -0.964314         0.400590         0.736393
 C        -1.150327         1.976154         0.704145
 C        -2.287357         1.308375         1.668280
 C        -1.184447         0.468668         2.329324
 O        -3.521315         1.883326         2.016690
 C        -4.474228         1.380474         0.947333
 C        -3.555252         0.694233        -0.127303
 C        -2.452472         0.113482         0.648864
 H         0.199777        -0.138379        -0.837494
 H        -0.489233         2.443646         1.434574
 H        -1.405988         2.508538        -0.243748
 H        -0.559719         0.997862         2.988379
 H        -1.664032        -0.397167         3.071142
 H        -5.087632         0.597087         1.363839
 H        -5.072045         2.165248         0.514341
 H        -4.329385        -0.084525        -0.608486
 H        -3.074074         1.484756        -0.811641
 H        -2.667680        -0.794036         1.188334
