19
Iteration:  3240
 O        -0.026673        -0.159470         0.035300
 C        -0.915840         0.425789         0.814470
 C        -1.268618         1.981860         0.755998
 C        -2.294703         1.297678         1.730806
 C        -1.064209         0.471358         2.393110
 O        -3.544038         1.771359         2.065871
 C        -4.336019         1.542734         0.757044
 C        -3.588732         0.519520        -0.198246
 C        -2.352502         0.087457         0.763878
 H         0.094178        -1.126406         0.328766
 H        -0.574667         2.787853         0.921510
 H        -1.746228         2.192105        -0.219374
 H        -0.305657         1.006540         3.031773
 H        -1.282273        -0.446519         2.904173
 H        -5.431365         1.410489         1.026755
 H        -4.340822         2.575140         0.243068
 H        -4.315322        -0.328651        -0.462500
 H        -3.187659         0.918537        -1.159279
 H        -2.596168        -0.892715         1.197789
