19
Iteration:  2632charge 0 multiplicity 1
 O         0.096766        -0.232786         0.112389
 C        -0.876993         0.400912         0.816936
 C        -1.216243         1.937130         0.689586
 C        -2.226084         1.298957         1.687642
 C        -1.179191         0.481492         2.385260
 O        -3.529342         1.761192         2.026848
 C        -4.350743         1.579755         0.845934
 C        -3.640282         0.543901        -0.106581
 C        -2.451531         0.050728         0.713891
 H         0.244103         0.531671        -0.486379
 H        -0.558909         2.680374         1.043977
 H        -1.697167         2.235498        -0.200344
 H        -0.390333         1.040692         3.107058
 H        -1.519409        -0.513094         2.624754
 H        -5.412280         1.377919         1.109090
 H        -4.498636         2.569051         0.361586
 H        -4.319371        -0.235161        -0.431656
 H        -3.435930         1.001170        -1.146163
 H        -2.855499        -0.867136         1.040541
