19
Iteration:  3483charge 0 multiplicity 1
 O         0.307691        -0.200682         0.134399
 C        -0.908046         0.374855         0.766482
 C        -1.348418         1.900323         0.704774
 C        -2.292238         1.189515         1.707156
 C        -1.058030         0.506105         2.355094
 O        -3.561389         1.771415         2.024554
 C        -4.312115         1.736889         0.734452
 C        -3.674734         0.553593        -0.096266
 C        -2.621438         0.004520         0.818632
 H         0.240081         0.290321        -0.660971
 H        -0.663747         2.601942         1.134704
 H        -1.909255         2.234386        -0.131603
 H        -0.334289         1.197542         2.691533
 H        -1.194325        -0.367587         2.989907
 H        -5.318986         1.466050         1.046084
 H        -4.236917         2.642321         0.163072
 H        -4.438853        -0.286098        -0.187564
 H        -3.374147         0.706816        -1.123631
 H        -2.787963        -1.013949         1.292559
