19
Iteration:  1494charge 0 multiplicity 1
 O         0.116633        -0.249151         0.107852
 C        -0.915863         0.404882         0.782480
 C        -1.311724         1.952049         0.593877
 C        -2.285334         1.268021         1.738300
 C        -1.072804         0.559079         2.391735
 O        -3.534294         1.653835         2.129956
 C        -4.381941         1.547674         0.799604
 C        -3.613775         0.650825        -0.272826
 C        -2.505135         0.064051         0.757865
 H         0.968416        -0.004211         0.388482
 H        -0.633171         2.740501         1.081519
 H        -1.616921         2.170965        -0.389663
 H        -0.222837         1.085306         2.911759
 H        -1.452456        -0.453785         2.821698
 H        -5.390884         1.335660         1.232431
 H        -4.218033         2.602331         0.525781
 H        -4.302872        -0.074919        -0.660050
 H        -3.246895         1.367833        -0.944280
 H        -2.830637        -0.816391         1.369448
