19
Iteration:    43charge 0 multiplicity 1
 O        -0.016236        -0.388328         0.050518
 C        -0.914285         0.423130         0.852291
 C        -1.129012         2.002738         0.894565
 C        -2.277211         1.353229         1.674005
 C        -1.251989         0.425121         2.393074
 O        -3.561625         1.819211         1.971155
 C        -4.391419         1.186428         0.945459
 C        -3.484888         0.887725        -0.292348
 C        -2.415207         0.267047         0.587526
 H         0.837631        -0.413495         0.439619
 H        -0.436182         2.609522         1.439094
 H        -1.243212         2.553700        -0.110668
 H        -0.517275         0.946193         2.916223
 H        -1.729116        -0.536606         2.823736
 H        -4.787923         0.152202         1.232783
 H        -5.274354         1.776880         0.741749
 H        -3.940261         0.207354        -0.999758
 H        -3.181273         1.723868        -0.834150
 H        -2.783513        -0.659971         0.978959
