19
Iteration:  2700charge 0 multiplicity 1
 O         0.180442        -0.353648         0.193910
 C        -0.914554         0.403447         0.753080
 C        -1.143071         1.942908         0.646115
 C        -2.321242         1.300894         1.630217
 C        -1.201313         0.539783         2.355722
 O        -3.540897         1.855852         2.054696
 C        -4.452213         1.361411         0.976193
 C        -3.573086         0.747813        -0.169788
 C        -2.435297         0.144683         0.660848
 H         0.008981        -0.133953        -0.802462
 H        -0.406385         2.571350         0.994689
 H        -1.578493         2.343577        -0.265377
 H        -0.519805         0.947577         3.174456
 H        -1.468641        -0.557575         2.632955
 H        -5.188423         0.664336         1.475992
 H        -5.227580         2.022792         0.806329
 H        -4.044220        -0.068551        -0.836071
 H        -3.231756         1.453628        -0.962701
 H        -2.743770        -0.770618         1.216851
