19
Iteration:  4977charge 0 multiplicity 1
 O         0.171455        -0.277566         0.161994
 C        -0.965535         0.350996         0.748624
 C        -1.240942         1.881186         0.575272
 C        -2.280779         1.277742         1.619867
 C        -1.102469         0.669438         2.438548
 O        -3.518347         1.852196         2.049263
 C        -4.383398         1.413139         0.982734
 C        -3.633256         0.661630        -0.140473
 C        -2.496087         0.019098         0.710698
 H         0.003108        -0.208176        -0.825564
 H        -0.374150         2.378861         0.929912
 H        -1.698714         2.100585        -0.378459
 H        -0.305520         1.337690         2.596989
 H        -1.148795        -0.125815         3.152937
 H        -5.286886         0.860493         1.490756
 H        -4.762971         2.374081         0.382645
 H        -4.184402         0.000857        -0.857128
 H        -3.259697         1.440095        -0.771432
 H        -2.862257        -0.837342         1.319222
