19
Iteration:  4111
 O         0.167314        -0.184553         0.088627
 C        -0.908266         0.422646         0.779114
 C        -1.264435         1.888134         0.599286
 C        -2.321893         1.247749         1.691451
 C        -1.041133         0.616700         2.324054
 O        -3.570352         1.826448         2.049900
 C        -4.389772         1.559486         0.800941
 C        -3.709840         0.456166        -0.014459
 C        -2.431042         0.059418         0.766446
 H         0.608734        -0.748883         0.759119
 H        -0.488998         2.628473         0.687497
 H        -1.717674         2.249857        -0.334159
 H        -0.257298         1.237788         2.738093
 H        -1.332488        -0.347860         2.821566
 H        -5.367033         1.377828         1.209801
 H        -4.439689         2.495050         0.246413
 H        -4.393711        -0.294447        -0.324050
 H        -3.423501         0.839144        -0.999918
 H        -2.607398        -0.910108         1.252176
