19
Iteration:  4744charge 0 multiplicity 1
 O        -0.018248        -0.275155         0.052427
 C        -1.028388         0.397298         0.705675
 C        -1.323099         1.964436         0.633824
 C        -2.238390         1.331186         1.623953
 C        -0.982924         0.665301         2.373881
 O        -3.597737         1.725666         2.071037
 C        -4.300764         1.608733         0.772250
 C        -3.537258         0.414477        -0.033519
 C        -2.460786         0.007015         0.855535
 H         0.767099        -0.080440         0.499533
 H        -0.491352         2.546637         1.059727
 H        -1.708767         2.429347        -0.231561
 H        -0.234640         1.328923         2.788423
 H        -1.060813        -0.242984         2.963439
 H        -5.356305         1.411522         1.072800
 H        -4.341181         2.664573         0.183374
 H        -4.219364        -0.242411        -0.415033
 H        -3.136478         0.943860        -0.984066
 H        -2.577971        -0.840413         1.540546
