19
Iteration:   437charge 0 multiplicity 1
 O         0.063636        -0.195242         0.147630
 C        -0.956766         0.465927         0.765424
 C        -1.141510         1.963881         0.759578
 C        -2.273724         1.224163         1.704828
 C        -1.154531         0.502098         2.362918
 O        -3.570289         1.801776         2.020025
 C        -4.448854         1.353605         0.849717
 C        -3.520597         0.736554        -0.186836
 C        -2.431305         0.065242         0.700955
 H        -0.347467        -1.012929        -0.270536
 H        -0.284742         2.551824         1.160517
 H        -1.504175         2.500318        -0.120142
 H        -0.393902         1.142320         2.820150
 H        -1.214192        -0.512668         2.721346
 H        -5.280913         0.773089         1.273910
 H        -4.761832         2.258950         0.395211
 H        -3.942028         0.069842        -0.884967
 H        -2.992210         1.485605        -0.790358
 H        -2.710320        -0.897113         1.172866
