19
Iteration:   770charge 0 multiplicity 1
 O         0.071142        -0.344274         0.100336
 C        -0.886324         0.501486         0.741913
 C        -1.175227         2.025204         0.714876
 C        -2.298195         1.306962         1.724321
 C        -1.192335         0.486974         2.402882
 O        -3.551775         1.700486         2.115257
 C        -4.382758         1.475075         0.860507
 C        -3.595293         0.567065        -0.266287
 C        -2.446457         0.194661         0.716191
 H         0.769700         0.059236        -0.362736
 H        -0.464508         2.704361         1.255914
 H        -1.587585         2.398808        -0.177390
 H        -0.415903         1.114733         3.015456
 H        -1.515889        -0.485850         2.764700
 H        -5.357985         1.268776         1.306745
 H        -4.557526         2.429187         0.288202
 H        -4.182373        -0.386512        -0.549449
 H        -3.355512         1.200904        -1.079423
 H        -2.589729        -0.901794         0.996001
