19
Iteration:   107
 O         0.264713        -0.152153         0.136548
 C        -0.937768         0.369412         0.788233
 C        -1.199335         1.802925         0.783249
 C        -2.268949         1.218592         1.701310
 C        -1.260746         0.307296         2.418914
 O        -3.531149         1.862702         1.963394
 C        -4.479977         1.447895         0.922422
 C        -3.587354         0.838138        -0.250476
 C        -2.514549         0.130466         0.586583
 H         0.960305         0.413736         0.387409
 H        -0.380721         2.337173         1.217445
 H        -1.443537         2.385961        -0.233633
 H        -0.487867         0.664633         3.076966
 H        -1.563678        -0.789796         2.775569
 H        -5.199870         0.736064         1.429185
 H        -5.052265         2.339982         0.727137
 H        -4.222150         0.204786        -0.897250
 H        -3.151717         1.590027        -0.886402
 H        -2.873627        -0.829936         1.032043
