19
Iteration:  2671
 O         0.093959        -0.265097         0.168559
 C        -1.002732         0.350031         0.827414
 C        -1.250278         1.945659         0.777239
 C        -2.280367         1.239844         1.655161
 C        -1.022918         0.501721         2.358562
 O        -3.488758         1.880847         1.973787
 C        -4.374384         1.433227         0.880742
 C        -3.626232         0.669987        -0.204814
 C        -2.509931         0.067629         0.680326
 H         0.333231         0.296058        -0.568020
 H        -0.430172         2.659074         1.210873
 H        -1.716487         2.417851        -0.159428
 H        -0.300428         1.041474         2.857136
 H        -1.059104        -0.504365         2.841135
 H        -5.164850         0.789957         1.367259
 H        -4.966426         2.303193         0.407487
 H        -4.232701        -0.100292        -0.711127
 H        -3.273794         1.380880        -0.913092
 H        -2.733611        -0.839080         1.332466
