19
Iteration:  2544
 O         0.146888        -0.158370         0.104708
 C        -0.919151         0.445796         0.696045
 C        -1.197878         1.963541         0.712330
 C        -2.276762         1.221412         1.705533
 C        -1.214800         0.517954         2.414455
 O        -3.538111         1.692487         2.086307
 C        -4.312705         1.716223         0.835497
 C        -3.647279         0.463583        -0.113228
 C        -2.499371         0.013536         0.692700
 H        -0.067973        -0.566181        -0.753348
 H        -0.640479         2.641649         1.336690
 H        -1.408656         2.394390        -0.204334
 H        -0.424084         1.219245         2.988420
 H        -1.383949        -0.482553         2.715424
 H        -5.360970         1.518228         1.030357
 H        -4.143950         2.738838         0.411738
 H        -4.320264        -0.329849        -0.378229
 H        -3.292131         0.878168        -1.172274
 H        -2.545471        -0.867548         1.290661
