19
Iteration:  2553
 O         0.130806        -0.140838         0.168566
 C        -0.962225         0.453423         0.695604
 C        -1.309274         1.935343         0.717756
 C        -2.304917         1.212750         1.666016
 C        -1.164642         0.526975         2.369980
 O        -3.526250         1.675741         2.102244
 C        -4.240068         1.682544         0.815724
 C        -3.679658         0.508655        -0.167019
 C        -2.417297         0.039806         0.731029
 H        -0.167665        -0.464873        -0.699036
 H        -0.390035         2.384712         1.135766
 H        -1.548477         2.269218        -0.264186
 H        -0.307916         0.984672         2.980995
 H        -1.444874        -0.371673         2.972411
 H        -5.227174         1.585873         1.110663
 H        -3.987046         2.689246         0.325335
 H        -4.369760        -0.301371        -0.269625
 H        -3.400860         1.082566        -1.043889
 H        -2.556370        -0.934392         1.111367
