19
Iteration:    99charge 0 multiplicity 1
 O         0.269124        -0.186965         0.146805
 C        -0.909730         0.301425         0.765917
 C        -1.128460         1.926896         0.823294
 C        -2.227379         1.226083         1.664639
 C        -1.238246         0.272332         2.394011
 O        -3.549190         1.897811         1.978296
 C        -4.467246         1.404022         0.914685
 C        -3.706052         0.852859        -0.239073
 C        -2.510467         0.118068         0.574832
 H         0.917490         0.415520         0.514608
 H        -0.404051         2.515168         1.413787
 H        -1.514908         2.312738        -0.065124
 H        -0.516805         0.728975         3.078286
 H        -1.733901        -0.565746         2.889343
 H        -5.113850         0.550499         1.240068
 H        -5.075059         2.215387         0.467786
 H        -4.313214         0.202195        -0.816574
 H        -3.329912         1.634896        -0.837591
 H        -2.842612        -0.806357         0.963333
