19
Iteration:  1782
 O         0.064322        -0.281828         0.113618
 C        -0.932849         0.443558         0.797885
 C        -1.251531         1.973006         0.728377
 C        -2.280191         1.333362         1.659418
 C        -1.115563         0.424709         2.311832
 O        -3.471191         1.847101         1.945431
 C        -4.429245         1.389254         0.966560
 C        -3.632303         0.666194        -0.139679
 C        -2.427487         0.102703         0.648237
 H         0.926482        -0.102136         0.637036
 H        -0.556570         2.530255         1.317957
 H        -1.501885         2.458884        -0.230001
 H        -0.425965         1.049802         2.908990
 H        -1.189200        -0.519076         2.774542
 H        -5.189340         0.667659         1.412122
 H        -5.101233         2.184349         0.479086
 H        -4.188974        -0.101371        -0.609154
 H        -3.317881         1.367829        -0.903614
 H        -2.780467        -0.776001         1.223757
