19
Iteration:  3245charge 0 multiplicity 1
 O        -0.011366        -0.190208         0.023315
 C        -0.932482         0.465840         0.824583
 C        -1.281924         1.958770         0.729466
 C        -2.274909         1.279146         1.728728
 C        -1.069228         0.485980         2.411946
 O        -3.567095         1.795226         2.048806
 C        -4.343084         1.573794         0.782697
 C        -3.581570         0.507510        -0.198685
 C        -2.346919         0.094024         0.759739
 H         0.104668        -1.087088         0.289843
 H        -0.565816         2.761837         1.088031
 H        -1.656783         2.172192        -0.271667
 H        -0.226714         0.877780         2.973114
 H        -1.406086        -0.482264         2.966644
 H        -5.340451         1.051821         1.091638
 H        -4.383668         2.530514         0.356728
 H        -4.143077        -0.294272        -0.637941
 H        -3.332848         1.090684        -1.090482
 H        -2.499089        -0.876521         1.252708
