19
Iteration:  2328
 O         0.103404        -0.331634         0.232354
 C        -0.964445         0.420527         0.774781
 C        -1.261238         2.015504         0.734123
 C        -2.275689         1.283134         1.687494
 C        -0.995521         0.484248         2.355947
 O        -3.518168         1.718700         2.050505
 C        -4.434164         1.530705         0.822819
 C        -3.599469         0.689789        -0.178652
 C        -2.462293         0.124496         0.645516
 H        -0.118515        -0.460567        -0.723623
 H        -0.570630         2.782461         1.242072
 H        -1.537411         2.332044        -0.321537
 H        -0.219886         1.280104         2.787275
 H        -1.202848        -0.578028         2.913474
 H        -5.228412         0.890247         1.263261
 H        -4.857849         2.482145         0.574535
 H        -4.229363        -0.131797        -0.581650
 H        -3.465076         1.344484        -0.965536
 H        -2.679503        -0.921454         0.826104
