19
Iteration:  4190charge 0 multiplicity 1
 O         0.115495        -0.295658         0.149652
 C        -0.926886         0.408501         0.778170
 C        -1.141407         1.938196         0.651060
 C        -2.337051         1.388483         1.601471
 C        -1.082123         0.695457         2.305916
 O        -3.534919         1.919690         1.993740
 C        -4.419227         1.216101         0.968523
 C        -3.605728         0.636274        -0.194062
 C        -2.459182         0.087350         0.778789
 H        -0.309517        -1.141706        -0.016883
 H        -0.440346         2.462572         1.223021
 H        -1.403537         2.213954        -0.358390
 H        -0.359541         1.343520         2.741856
 H        -1.265065        -0.190311         2.884859
 H        -5.047082         0.410828         1.496035
 H        -5.173602         1.936323         0.760475
 H        -4.251940        -0.231053        -0.626925
 H        -3.230266         1.483439        -0.738501
 H        -2.807434        -0.907837         1.292577
