19
Iteration:  4622
 O         0.158662        -0.356155         0.273577
 C        -0.894308         0.453358         0.785135
 C        -1.174541         1.974102         0.670211
 C        -2.297339         1.364749         1.547093
 C        -1.048934         0.596180         2.259220
 O        -3.474528         1.864025         1.989899
 C        -4.501054         1.389907         0.961024
 C        -3.716654         0.491794        -0.130374
 C        -2.532946         0.138955         0.705916
 H         0.036172        -0.351959        -0.693524
 H        -0.488086         2.553079         1.311482
 H        -1.395820         2.466970        -0.292119
 H        -0.258933         1.187985         2.697261
 H        -1.221870        -0.358026         2.787866
 H        -5.083575         0.785569         1.668192
 H        -5.010208         2.390283         0.767980
 H        -4.394642        -0.163549        -0.632963
 H        -3.192243         1.024125        -1.085744
 H        -2.609156        -0.771813         1.315597
