19
Iteration:  4328charge 0 multiplicity 1
 O         0.048718        -0.250024         0.093392
 C        -0.863485         0.459428         0.846496
 C        -1.307208         1.980578         0.629333
 C        -2.274021         1.355066         1.694622
 C        -1.016385         0.664060         2.367110
 O        -3.578536         1.630515         2.052704
 C        -4.333083         1.609312         0.811281
 C        -3.604952         0.430240        -0.156277
 C        -2.425557         0.055786         0.776804
 H        -0.370056        -1.005599        -0.303822
 H        -0.642961         2.811236         1.075667
 H        -1.662085         2.263879        -0.425371
 H        -0.277449         1.331050         2.874032
 H        -1.322530        -0.245691         3.001581
 H        -5.357192         1.378014         1.016804
 H        -4.427867         2.683184         0.327738
 H        -4.177749        -0.399221        -0.285583
 H        -3.348742         0.944025        -1.119277
 H        -2.699999        -0.709166         1.506093
