19
Iteration:  1193charge 0 multiplicity 1
 O         0.209245        -0.217288         0.045676
 C        -0.917401         0.399044         0.788917
 C        -1.351517         1.945807         0.672196
 C        -2.312134         1.206064         1.690755
 C        -1.180011         0.546138         2.391841
 O        -3.529330         1.694004         2.105990
 C        -4.286405         1.671618         0.816190
 C        -3.671289         0.518250        -0.172790
 C        -2.497225         0.056121         0.693225
 H         0.992100         0.095155         0.475291
 H        -0.673934         2.674477         1.164768
 H        -1.731705         2.249810        -0.253210
 H        -0.478764         1.202187         3.075816
 H        -1.275225        -0.346865         2.964614
 H        -5.342485         1.638744         1.179392
 H        -3.978680         2.642429         0.403653
 H        -4.362407        -0.316845        -0.508020
 H        -3.426568         1.110145        -0.996653
 H        -2.675478        -0.905576         1.134762
