19
Iteration:  2828charge 0 multiplicity 1
 O         0.025373        -0.325259         0.050060
 C        -0.892832         0.475455         0.739189
 C        -1.385180         1.993332         0.706452
 C        -2.256555         1.272634         1.780155
 C        -1.125513         0.518443         2.381312
 O        -3.542412         1.753964         2.071636
 C        -4.300173         1.532626         0.789071
 C        -3.584417         0.557399        -0.161164
 C        -2.397424         0.106223         0.713621
 H         0.825780        -0.154329         0.518986
 H        -0.610819         2.755272         1.160953
 H        -1.745595         2.363315        -0.306948
 H        -0.204256         0.982860         2.776217
 H        -1.390848        -0.393072         2.834247
 H        -5.210128         1.143101         1.165971
 H        -4.316946         2.596136         0.431630
 H        -4.333232        -0.160526        -0.467045
 H        -3.255824         1.106159        -1.042302
 H        -2.848634        -0.780506         1.230525
