19
Iteration:  3171
 O         0.232987        -0.013222         0.167532
 C        -0.949340         0.429673         0.774843
 C        -1.390410         1.863628         0.595927
 C        -2.264052         1.216553         1.694571
 C        -1.122196         0.468020         2.313908
 O        -3.490370         1.737461         2.071299
 C        -4.237342         1.757604         0.769499
 C        -3.745946         0.507894        -0.077568
 C        -2.517325        -0.104220         0.763636
 H         0.432229        -0.955146         0.370186
 H        -0.718286         2.739531         0.983688
 H        -1.927705         2.157582        -0.312547
 H        -0.443563         1.061787         2.863802
 H        -1.334271        -0.433498         2.865599
 H        -5.279782         1.851374         0.991196
 H        -3.974756         2.751353         0.159310
 H        -4.539492        -0.240864        -0.203147
 H        -3.431988         0.729362        -1.186569
 H        -2.604143        -1.117284         1.267679
