19
Iteration:  3418
 O         0.126958        -0.208186         0.091742
 C        -0.909120         0.434723         0.807648
 C        -1.228328         1.943084         0.705519
 C        -2.316636         1.237503         1.728847
 C        -1.062185         0.596712         2.379871
 O        -3.635660         1.654732         2.028521
 C        -4.316626         1.691561         0.810183
 C        -3.615126         0.516548        -0.136470
 C        -2.428169         0.095663         0.719934
 H        -0.314565        -1.076837        -0.144354
 H        -0.509573         2.614010         1.089599
 H        -1.715096         2.216944        -0.179209
 H        -0.290661         1.264021         2.757140
 H        -1.225990        -0.339808         2.979143
 H        -5.413542         1.509575         0.926585
 H        -4.218518         2.703275         0.389549
 H        -4.366328        -0.330437        -0.245598
 H        -3.301633         0.874161        -1.101587
 H        -2.652231        -0.970869         1.056572
