19
Iteration:  2879
 O         0.251351        -0.093977         0.006983
 C        -0.944508         0.382774         0.768186
 C        -1.361809         1.840533         0.661683
 C        -2.257217         1.219848         1.718102
 C        -1.120904         0.566363         2.382963
 O        -3.549949         1.674236         2.112649
 C        -4.292401         1.766724         0.748842
 C        -3.661135         0.494383        -0.117246
 C        -2.498359         0.023648         0.766221
 H         0.275187        -1.029381         0.394960
 H        -0.654475         2.646294         0.917064
 H        -1.926293         2.268118        -0.147747
 H        -0.459235         1.244061         3.051110
 H        -1.394782        -0.313145         3.035858
 H        -5.355622         1.738273         0.968004
 H        -4.073044         2.846281         0.491353
 H        -4.333231        -0.330316        -0.192137
 H        -3.364248         0.783259        -1.171098
 H        -2.957555        -0.872197         1.224591
