19
Iteration:  3821charge 0 multiplicity 1
 O         0.020541        -0.322991         0.197206
 C        -0.962032         0.458461         0.806711
 C        -1.288177         2.027897         0.564236
 C        -2.240981         1.287252         1.665690
 C        -1.036420         0.644049         2.339467
 O        -3.517162         1.749007         2.012169
 C        -4.417605         1.429291         0.858816
 C        -3.520978         0.563288        -0.152209
 C        -2.443504         0.097582         0.827420
 H        -0.386555        -0.396126        -0.730875
 H        -0.458729         2.574417         1.075025
 H        -1.657765         2.513668        -0.408031
 H        -0.364044         1.331956         3.043180
 H        -1.051199        -0.372104         2.977059
 H        -5.333422         0.853897         1.188241
 H        -4.598533         2.380595         0.263581
 H        -4.135309        -0.321620        -0.440940
 H        -3.150668         1.095835        -0.968707
 H        -2.664404        -0.775576         1.370774
