19
Iteration:   986charge 0 multiplicity 1
 O         0.024953        -0.355824         0.145228
 C        -0.970277         0.382899         0.722243
 C        -1.190079         1.982861         0.769962
 C        -2.242244         1.335942         1.711550
 C        -1.115784         0.448262         2.351279
 O        -3.583349         1.947404         1.979621
 C        -4.457315         1.229215         0.961267
 C        -3.551400         0.732373        -0.215950
 C        -2.376589         0.191372         0.589167
 H         0.965825         0.033629         0.242378
 H        -0.437138         2.574155         1.446928
 H        -1.456866         2.458462        -0.165652
 H        -0.300561         1.052978         2.894788
 H        -1.331561        -0.376307         2.970824
 H        -4.971373         0.448211         1.573947
 H        -5.141274         2.026570         0.623936
 H        -4.276727        -0.067636        -0.656714
 H        -3.417675         1.357317        -1.067360
 H        -2.524294        -0.808922         1.093553
