19
Iteration:  1822charge 0 multiplicity 1
 O         0.003946        -0.207886         0.044080
 C        -0.944978         0.410250         0.863174
 C        -1.202722         1.899625         0.709220
 C        -2.302280         1.251729         1.642234
 C        -1.081848         0.531397         2.392982
 O        -3.527381         1.754702         2.014335
 C        -4.388211         1.464004         0.846134
 C        -3.571848         0.649946        -0.161704
 C        -2.474082         0.125311         0.732074
 H         0.867161        -0.120111         0.382106
 H        -0.282905         2.451963         0.981202
 H        -1.402572         2.285549        -0.321181
 H        -0.312060         1.229878         2.914841
 H        -1.270808        -0.401122         2.889193
 H        -5.238500         0.922133         1.278871
 H        -4.838994         2.422647         0.697799
 H        -4.273729        -0.111339        -0.592564
 H        -3.228177         1.188547        -1.020289
 H        -2.723871        -0.808731         1.197337
