19
Iteration:  4781
 O         0.128985        -0.217672         0.120540
 C        -0.877295         0.410783         0.803328
 C        -1.420310         1.857787         0.557499
 C        -2.267174         1.253266         1.641495
 C        -1.074082         0.590292         2.424644
 O        -3.445810         1.840493         2.024584
 C        -4.328531         1.677584         0.846053
 C        -3.744800         0.461689        -0.057905
 C        -2.446279        -0.057828         0.734738
 H         0.804376         0.427256        -0.079267
 H        -0.838909         2.699458         0.874217
 H        -1.816735         2.117509        -0.458126
 H        -0.410381         1.303924         2.987223
 H        -1.185691        -0.300744         3.064857
 H        -5.293717         1.358683         1.228978
 H        -4.404566         2.533636         0.291845
 H        -4.361768        -0.520837        -0.306085
 H        -3.388948         0.861493        -1.010873
 H        -2.793859        -0.974797         1.323085
