19
Iteration:  3294charge 0 multiplicity 1
 O         0.186941        -0.189247         0.208509
 C        -0.908231         0.382573         0.815055
 C        -1.134518         1.863658         0.618675
 C        -2.294728         1.309506         1.597980
 C        -1.130669         0.486783         2.381296
 O        -3.531260         1.889761         1.925191
 C        -4.490810         1.283644         1.097360
 C        -3.594364         0.790101        -0.174554
 C        -2.532109         0.149525         0.612385
 H        -0.001523        -1.169415         0.110571
 H        -0.416808         2.557334         1.137134
 H        -1.422002         2.177251        -0.433355
 H        -0.369742         1.026250         2.984852
 H        -1.452048        -0.381060         2.869688
 H        -4.861665         0.439207         1.619412
 H        -5.061916         2.147383         0.686346
 H        -4.276024         0.030805        -0.722212
 H        -3.264560         1.428266        -1.050625
 H        -2.997864        -0.844240         0.915097
