19
Iteration:   507
 O         0.212501        -0.152371         0.245413
 C        -0.991121         0.390478         0.794376
 C        -1.332043         1.908925         0.651894
 C        -2.341143         1.215726         1.636210
 C        -1.073624         0.461023         2.291632
 O        -3.518744         1.672017         2.127243
 C        -4.241087         1.603796         0.782308
 C        -3.650584         0.668736        -0.186109
 C        -2.539970         0.000000         0.727253
 H         0.612023         0.585001        -0.280985
 H        -0.729346         2.693454         1.170076
 H        -1.773885         2.457932        -0.327756
 H        -0.236290         1.107579         2.673035
 H        -1.306545        -0.535216         2.822001
 H        -5.263269         1.294714         1.051370
 H        -4.092613         2.684791         0.406324
 H        -4.449467        -0.117128        -0.341992
 H        -3.563768         1.205812        -1.125371
 H        -2.922710        -0.890366         1.263734
