19
Iteration:  3301
 O         0.208646        -0.235142         0.232161
 C        -0.890974         0.411259         0.804398
 C        -1.137495         1.907640         0.613478
 C        -2.322397         1.284803         1.577848
 C        -1.189417         0.440524         2.338671
 O        -3.527822         1.931140         1.923700
 C        -4.447929         1.274616         1.111216
 C        -3.633592         0.797046        -0.178797
 C        -2.476799         0.177319         0.620139
 H         0.190307        -1.250009         0.146931
 H        -0.335058         2.646739         1.029508
 H        -1.517714         2.062001        -0.392769
 H        -0.608895         1.119108         2.979251
 H        -1.508443        -0.579989         2.699567
 H        -4.918241         0.285893         1.444966
 H        -5.223120         2.066156         0.899953
 H        -4.213521        -0.019709        -0.491632
 H        -3.530089         1.584894        -0.981759
 H        -2.701477        -0.758329         1.160906
