19
Iteration:   963
 O         0.123790        -0.366184         0.130752
 C        -0.854473         0.516752         0.815708
 C        -1.209064         2.047693         0.687212
 C        -2.292518         1.264778         1.628368
 C        -1.277900         0.455364         2.322008
 O        -3.452972         1.821030         1.964755
 C        -4.434959         1.329582         1.017983
 C        -3.633670         0.689202        -0.200369
 C        -2.452730         0.156077         0.674719
 H         0.966762         0.041091         0.269446
 H        -0.457157         2.691765         1.191752
 H        -1.429911         2.327411        -0.366495
 H        -0.758562         0.917170         3.225714
 H        -1.503870        -0.552905         2.604005
 H        -5.103225         0.723719         1.675346
 H        -4.952047         2.240673         0.683153
 H        -4.315827         0.012204        -0.768445
 H        -3.352512         1.400088        -0.962428
 H        -2.625316        -0.797515         1.201733
