19
Iteration:  1120charge 0 multiplicity 1
 O         0.022447        -0.199521         0.083356
 C        -0.983204         0.414591         0.757528
 C        -1.293508         1.881040         0.723840
 C        -2.358282         1.211065         1.742650
 C        -1.100686         0.543091         2.395948
 O        -3.585916         1.719132         2.027188
 C        -4.298691         1.654863         0.779703
 C        -3.530311         0.582235        -0.104203
 C        -2.375712        -0.004003         0.731966
 H         0.748443         0.477069        -0.097797
 H        -0.413051         2.551720         0.998152
 H        -1.644274         2.210078        -0.331508
 H        -0.346913         1.192477         2.871467
 H        -1.380061        -0.412212         2.940587
 H        -5.322572         1.544229         1.086016
 H        -4.196878         2.697982         0.380311
 H        -4.117631        -0.267654        -0.451879
 H        -3.092225         1.108153        -1.043071
 H        -2.608579        -1.022196         1.188021
