19
Iteration:  4174
 O         0.125245        -0.285293         0.051246
 C        -0.897791         0.417020         0.787238
 C        -1.268909         1.950953         0.616600
 C        -2.235006         1.321141         1.647229
 C        -1.145696         0.652047         2.458065
 O        -3.513572         1.910458         1.898911
 C        -4.436768         1.311475         0.983073
 C        -3.558444         0.594248        -0.125551
 C        -2.474553         0.081294         0.791303
 H        -0.182036        -1.186545        -0.303379
 H        -0.468061         2.711172         1.028871
 H        -1.708557         2.416491        -0.327264
 H        -0.363866         1.233838         3.062931
 H        -1.495609        -0.228183         3.157304
 H        -4.875915         0.521142         1.532869
 H        -5.198204         2.027700         0.516837
 H        -4.135753        -0.108801        -0.624948
 H        -3.065248         1.157423        -0.947416
 H        -2.745743        -0.679811         1.435035
