19
Iteration:   415charge 0 multiplicity 1
 O         0.176461        -0.281271         0.082453
 C        -0.879355         0.397871         0.812435
 C        -1.290944         1.900207         0.724152
 C        -2.337444         1.247392         1.691877
 C        -1.084444         0.491210         2.378035
 O        -3.622385         1.795681         2.041541
 C        -4.412469         1.393694         0.921245
 C        -3.517059         0.882265        -0.297504
 C        -2.454614         0.146921         0.701015
 H         0.201361        -1.108372         0.545827
 H        -0.717469         2.740546         1.185970
 H        -1.625465         2.252045        -0.218493
 H        -0.281957         1.118733         2.829729
 H        -1.390979        -0.352612         2.967880
 H        -4.887645         0.470397         1.306829
 H        -5.139179         2.124098         0.750659
 H        -3.997452         0.108718        -0.806349
 H        -3.113152         1.545102        -1.048744
 H        -2.859444        -0.841759         0.959558
