19
Iteration:  3643
 O         0.193918        -0.187532         0.227994
 C        -0.940496         0.321187         0.804325
 C        -1.256603         1.909444         0.658561
 C        -2.281461         1.328933         1.660719
 C        -1.011282         0.518635         2.325345
 O        -3.543343         1.917212         1.975276
 C        -4.421450         1.432046         0.948636
 C        -3.663945         0.629399        -0.195393
 C        -2.514177         0.079288         0.689432
 H         0.087015        -0.921868        -0.380910
 H        -0.415767         2.460541         1.164721
 H        -1.445298         2.283956        -0.378101
 H        -0.177342         1.091923         2.800508
 H        -1.309850        -0.468861         2.812476
 H        -5.154807         0.689700         1.415018
 H        -4.913950         2.321576         0.524506
 H        -4.236244        -0.276923        -0.444987
 H        -3.505843         1.035978        -1.127959
 H        -2.923500        -0.708849         1.301467
