19
Iteration:  2470charge 0 multiplicity 1
 O         0.155969        -0.289211         0.163880
 C        -0.919754         0.357837         0.766590
 C        -1.241906         1.940267         0.677260
 C        -2.295321         1.255149         1.623684
 C        -1.097884         0.533645         2.412246
 O        -3.553518         1.755789         2.081928
 C        -4.451359         1.485686         0.927254
 C        -3.525308         0.727234        -0.204295
 C        -2.475650         0.101599         0.671169
 H        -0.149021        -0.456145        -0.776891
 H        -0.498421         2.704475         0.998169
 H        -1.670175         2.377494        -0.243424
 H        -0.308782         1.185533         2.841680
 H        -1.376071        -0.256983         2.984715
 H        -5.368298         0.953195         1.387982
 H        -4.848414         2.399152         0.517084
 H        -4.020202        -0.015106        -0.782095
 H        -3.329619         1.474562        -0.965366
 H        -2.642593        -0.857173         1.260777
