19
Iteration:  2400charge 0 multiplicity 1
 O         0.154890        -0.265413         0.223981
 C        -0.878918         0.395331         0.779770
 C        -1.210048         1.895011         0.670800
 C        -2.312060         1.193657         1.665565
 C        -1.124529         0.365265         2.374583
 O        -3.469613         1.978686         1.916140
 C        -4.462881         1.332954         1.023793
 C        -3.632907         0.770665        -0.182390
 C        -2.500220         0.163405         0.632152
 H         0.332385         0.302313        -0.605184
 H        -0.521977         2.603363         1.106298
 H        -1.442401         2.349678        -0.254380
 H        -0.484479         1.098933         2.905562
 H        -1.493942        -0.507031         2.938872
 H        -4.943615         0.523647         1.578464
 H        -5.253380         2.135516         0.888903
 H        -4.222450        -0.051946        -0.651544
 H        -3.285763         1.338908        -1.170149
 H        -2.847726        -0.802649         1.086589
