19
Iteration:  1343
 O         0.156456        -0.334187         0.158978
 C        -0.905395         0.392420         0.768439
 C        -1.184747         1.913444         0.702865
 C        -2.289025         1.337321         1.581737
 C        -1.158468         0.520734         2.276466
 O        -3.594844         1.771157         2.070393
 C        -4.436545         1.405271         0.963523
 C        -3.618693         0.749784        -0.145055
 C        -2.436385         0.132159         0.612972
 H         0.984390         0.068416         0.387490
 H        -0.458917         2.552967         1.370750
 H        -1.346074         2.347385        -0.268513
 H        -0.506563         1.248388         2.702542
 H        -1.502577        -0.191825         2.955383
 H        -5.138026         0.702951         1.430330
 H        -5.095801         2.188750         0.695209
 H        -4.266371        -0.096176        -0.643275
 H        -3.375423         1.386180        -1.000288
 H        -2.594925        -0.820485         1.199957
