19
Iteration:  1435
 O         0.031178        -0.209121         0.032959
 C        -0.854714         0.403511         0.857160
 C        -1.150619         1.932906         0.722422
 C        -2.326713         1.281600         1.682415
 C        -1.165880         0.448396         2.317328
 O        -3.544044         1.833435         2.002850
 C        -4.401370         1.455978         0.880681
 C        -3.553659         0.607743        -0.164643
 C        -2.452761         0.103548         0.773904
 H         0.945963         0.152525         0.127609
 H        -0.438212         2.514871         1.230441
 H        -1.400841         2.361287        -0.305879
 H        -0.565074         1.088747         2.957493
 H        -1.447672        -0.421761         2.890241
 H        -5.315157         0.847154         1.184262
 H        -4.931100         2.382857         0.463413
 H        -4.222628        -0.242538        -0.423299
 H        -3.399744         1.052894        -1.194677
 H        -2.815746        -0.732096         1.298474
