19
Iteration:  2974charge 0 multiplicity 1
 O         0.066387        -0.219235         0.057181
 C        -1.019774         0.397722         0.822675
 C        -1.299101         1.947706         0.671275
 C        -2.252947         1.262823         1.714072
 C        -1.101757         0.646167         2.380118
 O        -3.522786         1.756370         2.073643
 C        -4.285156         1.435632         0.841644
 C        -3.502908         0.652726        -0.188770
 C        -2.492454         0.069279         0.691979
 H         0.133182        -1.169733         0.442701
 H        -0.500215         2.514304         1.141393
 H        -1.527147         2.449784        -0.308623
 H        -0.244722         1.136908         2.780052
 H        -1.532195        -0.225427         2.973824
 H        -5.256576         0.956034         1.394656
 H        -4.715006         2.397692         0.412595
 H        -4.329902        -0.092509        -0.478490
 H        -3.108144         1.184380        -1.099790
 H        -2.829296        -0.889169         1.085410
