19
Iteration:  3763
 O         0.260861        -0.090788         0.283194
 C        -0.960193         0.389774         0.759239
 C        -1.200117         1.890555         0.486395
 C        -2.303125         1.233532         1.671691
 C        -1.130530         0.523751         2.323996
 O        -3.547761         1.751136         2.056198
 C        -4.271700         1.714385         0.860597
 C        -3.797609         0.448725        -0.042015
 C        -2.535839        -0.032527         0.738017
 H         0.300326         0.315301        -0.605369
 H        -0.438162         2.638939         0.748055
 H        -1.465084         1.877863        -0.546037
 H        -0.292138         1.195527         2.656717
 H        -1.332318        -0.432896         2.959917
 H        -5.370973         1.548652         1.075342
 H        -4.291202         2.625979         0.273173
 H        -4.644183        -0.294853        -0.153490
 H        -3.528535         0.686235        -1.091718
 H        -2.618635        -0.948445         1.326023
