19
Iteration:   869charge 0 multiplicity 1
 O         0.093936        -0.242712        -0.097403
 C        -0.876851         0.455293         0.751030
 C        -1.198895         2.007981         0.869991
 C        -2.343156         1.266639         1.782604
 C        -1.158292         0.549851         2.350212
 O        -3.596339         1.658787         2.087833
 C        -4.287247         1.645910         0.665174
 C        -3.677473         0.452338        -0.134032
 C        -2.470219         0.081820         0.827082
 H         1.042304         0.053740         0.015265
 H        -0.424166         2.564863         1.502009
 H        -1.428534         2.475100        -0.024399
 H        -0.440464         1.181354         2.969724
 H        -1.376308        -0.358931         2.960857
 H        -5.370197         1.585457         0.820124
 H        -3.962201         2.664575         0.394169
 H        -4.466883        -0.379441        -0.364422
 H        -3.322587         0.738354        -1.114696
 H        -2.739164        -0.910510         1.279861
