19
Iteration:  2480
 O         0.140061        -0.264631         0.161099
 C        -0.968040         0.417515         0.718349
 C        -1.285233         1.902244         0.705010
 C        -2.301265         1.294480         1.678307
 C        -1.132096         0.554677         2.335764
 O        -3.515297         1.757622         2.056572
 C        -4.363362         1.497181         0.881052
 C        -3.532926         0.691252        -0.141187
 C        -2.449998         0.058000         0.705066
 H        -0.100604        -0.673471        -0.745877
 H        -0.801570         2.642654         1.339149
 H        -1.668385         2.260490        -0.223485
 H        -0.364827         1.169833         2.949379
 H        -1.404202        -0.339353         2.773571
 H        -5.190149         0.828336         1.317993
 H        -4.727939         2.424667         0.459283
 H        -4.226105         0.116539        -0.687252
 H        -2.934129         1.407564        -0.828513
 H        -2.841180        -0.913534         1.214264
