19
Iteration:  2897
 O         0.188417        -0.024151         0.118833
 C        -0.956053         0.423300         0.812440
 C        -1.342787         1.872971         0.608948
 C        -2.332850         1.187849         1.655623
 C        -1.114686         0.466015         2.360161
 O        -3.543632         1.777321         2.051554
 C        -4.208411         1.701420         0.807173
 C        -3.702567         0.542145        -0.063385
 C        -2.450355        -0.029930         0.775689
 H         0.034464        -0.993253        -0.091584
 H        -0.763605         2.678265         0.994775
 H        -1.601738         2.020665        -0.451633
 H        -0.389249         1.064103         2.842957
 H        -1.294308        -0.597757         2.801879
 H        -5.278631         1.491635         1.146272
 H        -3.933151         2.587059         0.266801
 H        -4.480964        -0.313334        -0.185951
 H        -3.460975         0.911840        -1.060404
 H        -2.517548        -1.057598         1.170760
