19
Iteration:  4374
 O         0.136981        -0.067359         0.155719
 C        -0.900984         0.408363         0.858145
 C        -1.417797         1.871194         0.668277
 C        -2.243299         1.214237         1.600369
 C        -1.041433         0.622038         2.345397
 O        -3.493378         1.747185         2.038696
 C        -4.259111         1.681309         0.807640
 C        -3.686351         0.458483        -0.105186
 C        -2.526969        -0.068043         0.777891
 H        -0.056768        -0.836662        -0.333389
 H        -0.671668         2.709346         0.970446
 H        -1.939319         1.986035        -0.361720
 H        -0.265043         1.405187         2.636627
 H        -1.193405        -0.329036         3.046900
 H        -5.384799         1.629137         0.935718
 H        -4.177622         2.592215         0.107307
 H        -4.477033        -0.284982        -0.189740
 H        -3.367506         0.762172        -1.046252
 H        -2.512303        -0.961297         1.335577
