19
Iteration:  1888
 O         0.089176        -0.193936         0.081428
 C        -0.970858         0.358866         0.784830
 C        -1.320294         1.909532         0.681848
 C        -2.299363         1.226497         1.710069
 C        -1.041547         0.514602         2.400882
 O        -3.567156         1.719195         2.082779
 C        -4.296950         1.679697         0.850636
 C        -3.612454         0.569186        -0.179485
 C        -2.516590         0.016017         0.730687
 H         0.836129         0.526628         0.107716
 H        -0.327671         2.497635         0.876290
 H        -1.567269         2.402465        -0.321713
 H        -0.180500         1.203399         2.937007
 H        -1.285228        -0.349406         2.918260
 H        -5.333850         1.364062         1.035327
 H        -4.178490         2.611569         0.261872
 H        -4.207020        -0.295115        -0.622693
 H        -3.311822         1.048200        -1.109949
 H        -2.772958        -0.918328         1.177952
