19
Iteration:  2947charge 0 multiplicity 1
 O         0.122732        -0.208427         0.046071
 C        -0.866069         0.463065         0.800447
 C        -1.237392         1.915524         0.698930
 C        -2.269906         1.241285         1.673610
 C        -1.102156         0.555294         2.368277
 O        -3.586381         1.721265         2.083975
 C        -4.447236         1.582362         0.766512
 C        -3.602209         0.550418        -0.079959
 C        -2.435121         0.122566         0.748998
 H        -0.156046        -1.185903        -0.031233
 H        -0.487032         2.685845         1.025813
 H        -1.537293         2.394848        -0.258473
 H        -0.315733         1.103789         2.987259
 H        -1.420150        -0.347120         2.812191
 H        -5.354566         1.325094         1.174872
 H        -4.296915         2.541605         0.207333
 H        -4.194927        -0.278647        -0.369699
 H        -3.298362         1.022723        -1.009381
 H        -2.662483        -0.834275         1.295235
