19
Iteration:   823
 O         0.185299        -0.172887         0.076267
 C        -0.946944         0.406931         0.734382
 C        -1.470737         1.926714         0.706707
 C        -2.361254         1.126561         1.696198
 C        -1.149426         0.506564         2.402965
 O        -3.495914         1.780611         2.196379
 C        -4.192187         1.732029         0.724234
 C        -3.643730         0.532822        -0.169708
 C        -2.446747        -0.064052         0.721774
 H         0.919574         0.399178         0.136670
 H        -0.881033         2.767234         1.216388
 H        -2.054018         2.210824        -0.205378
 H        -0.474860         1.239060         2.973948
 H        -1.007560        -0.461620         2.787104
 H        -5.230119         1.608487         1.011737
 H        -4.021710         2.596973         0.040511
 H        -4.497891        -0.217876        -0.581109
 H        -3.224844         0.994782        -1.105045
 H        -2.690069        -1.081952         1.205245
