19
Iteration:  3401
 O         0.021429        -0.169979         0.098433
 C        -0.949546         0.488133         0.775005
 C        -1.181173         1.939485         0.653626
 C        -2.337836         1.121306         1.768456
 C        -1.028553         0.561221         2.428979
 O        -3.526243         1.801272         2.077749
 C        -4.358567         1.534889         0.766900
 C        -3.597875         0.582576        -0.250133
 C        -2.489047         0.011988         0.745192
 H         0.010743        -1.128344         0.279483
 H        -0.427337         2.618330         1.182680
 H        -1.440307         2.387273        -0.362360
 H        -0.435667         1.371426         2.952363
 H        -0.976980        -0.380176         2.985745
 H        -5.330174         1.288486         1.207195
 H        -4.662440         2.489370         0.272317
 H        -4.139123        -0.260485        -0.636481
 H        -3.236198         1.313309        -1.031999
 H        -2.641043        -0.876528         1.310644
