19
Iteration:  4422charge 0 multiplicity 1
 O         0.145731        -0.173241         0.052562
 C        -0.939989         0.444569         0.825588
 C        -1.274129         1.975497         0.697058
 C        -2.262632         1.285278         1.648026
 C        -1.065993         0.559610         2.328957
 O        -3.537363         1.756889         1.984687
 C        -4.306190         1.587637         0.798030
 C        -3.762196         0.419138        -0.027643
 C        -2.444512         0.071030         0.753917
 H         0.492328        -1.023864         0.526235
 H        -0.716895         2.694195         1.246057
 H        -1.505897         2.266384        -0.299768
 H        -0.301617         1.195251         2.829420
 H        -1.429087        -0.295713         2.857253
 H        -5.339188         1.599546         1.183133
 H        -4.270038         2.387264         0.098053
 H        -4.476156        -0.504247        -0.044796
 H        -3.640377         0.849632        -1.054347
 H        -2.541145        -0.818771         1.404192
