19
Iteration:  3469charge 0 multiplicity 1
 O         0.186070        -0.092532         0.214412
 C        -0.958368         0.335658         0.809472
 C        -1.403460         1.857688         0.702359
 C        -2.358816         1.153299         1.710304
 C        -0.980805         0.514690         2.327700
 O        -3.532846         1.782626         2.043327
 C        -4.236180         1.752441         0.704530
 C        -3.738007         0.506640        -0.083708
 C        -2.431571        -0.024982         0.711697
 H         0.170758        -0.171274        -0.806757
 H        -0.696059         2.534789         1.233853
 H        -1.676469         2.257337        -0.350601
 H        -0.296902         1.198195         2.764940
 H        -1.028465        -0.410686         2.872657
 H        -5.315133         1.776154         0.810321
 H        -4.077517         2.740287         0.254557
 H        -4.575650        -0.242859         0.041057
 H        -3.578685         0.878988        -1.065183
 H        -2.751523        -0.953778         1.177727
