19
Iteration:  3456charge 0 multiplicity 1
 O         0.171473        -0.107940         0.219506
 C        -0.946960         0.518195         0.744042
 C        -1.351464         1.856143         0.694957
 C        -2.285371         1.178592         1.715323
 C        -1.097046         0.502737         2.330433
 O        -3.580607         1.735709         2.051443
 C        -4.157110         1.804432         0.790360
 C        -3.704586         0.450712        -0.094167
 C        -2.497296        -0.057314         0.701618
 H        -0.142668        -0.456032        -0.578919
 H        -0.653669         2.705043         0.968945
 H        -1.917664         2.084435        -0.285253
 H        -0.268460         1.149654         2.781237
 H        -1.296758        -0.422404         2.890113
 H        -5.221504         1.883077         1.052414
 H        -3.615821         2.556641         0.142543
 H        -4.398292        -0.387092        -0.176842
 H        -3.643046         0.632052        -1.207630
 H        -2.480733        -1.032387         1.133775
