19
Iteration:   965charge 0 multiplicity 1
 O         0.118911        -0.380316         0.126330
 C        -0.844305         0.523243         0.821357
 C        -1.218726         2.048527         0.695762
 C        -2.293402         1.277228         1.625848
 C        -1.282498         0.455916         2.311734
 O        -3.462462         1.834574         1.973502
 C        -4.433329         1.330043         1.020175
 C        -3.620643         0.681393        -0.189965
 C        -2.441198         0.154168         0.662299
 H         0.945674         0.061479         0.272984
 H        -0.403333         2.720817         1.207511
 H        -1.467125         2.318651        -0.316106
 H        -0.730935         0.854637         3.183558
 H        -1.541674        -0.497248         2.570832
 H        -5.059079         0.706536         1.663415
 H        -4.998228         2.218370         0.675549
 H        -4.300659        -0.044642        -0.818416
 H        -3.345397         1.391047        -0.956185
 H        -2.655582        -0.848496         1.183135
