19
Iteration:  4824
 O         0.209221        -0.332885         0.191412
 C        -0.869367         0.455925         0.773866
 C        -1.210059         1.964282         0.626602
 C        -2.301685         1.317102         1.692384
 C        -0.989367         0.594322         2.303869
 O        -3.581234         1.785988         2.005349
 C        -4.448567         1.569812         0.862327
 C        -3.770692         0.411451        -0.117320
 C        -2.456240         0.128498         0.800357
 H         0.071183        -0.119011        -0.705966
 H        -0.480931         2.706304         0.839451
 H        -1.659654         2.293140        -0.347651
 H        -0.146476         1.130459         2.724805
 H        -1.237276        -0.342300         2.763584
 H        -5.449476         1.418251         1.340430
 H        -4.424029         2.569056         0.304818
 H        -4.547353        -0.422820        -0.038361
 H        -3.680394         0.904501        -1.077511
 H        -2.600260        -0.891036         1.385169
