19
Iteration:  3361charge 0 multiplicity 1
 O         0.155917        -0.254879         0.071551
 C        -0.874118         0.354880         0.820436
 C        -1.153006         1.979038         0.693344
 C        -2.231549         1.308954         1.646899
 C        -1.144652         0.450877         2.410356
 O        -3.531018         1.958479         1.970314
 C        -4.520699         1.282931         0.969005
 C        -3.638476         0.701745        -0.206823
 C        -2.484633         0.159233         0.690850
 H         0.503849        -0.922207         0.710283
 H        -0.416173         2.705841         1.062328
 H        -1.457469         2.280331        -0.358263
 H        -0.423818         0.911406         3.054962
 H        -1.534324        -0.450927         2.847799
 H        -5.176964         0.519116         1.412965
 H        -5.100006         2.160960         0.629823
 H        -4.176932        -0.119709        -0.843858
 H        -3.403844         1.472239        -0.938896
 H        -2.906178        -0.859007         1.093429
