19
Iteration:  4082charge 0 multiplicity 1
 O         0.147135        -0.203273         0.183473
 C        -0.929480         0.414618         0.767815
 C        -1.475601         1.888459         0.513336
 C        -2.319954         1.210378         1.615774
 C        -1.088105         0.752476         2.326210
 O        -3.467456         1.628481         2.089306
 C        -4.235153         1.675622         0.838987
 C        -3.639113         0.505168        -0.065285
 C        -2.456988         0.032892         0.738326
 H         0.568006        -0.707131         0.840812
 H        -0.793258         2.744921         0.758947
 H        -2.017886         2.005962        -0.457411
 H        -0.336706         1.382842         2.789939
 H        -1.346658        -0.112851         2.912605
 H        -5.329543         1.553225         1.274558
 H        -3.956476         2.668419         0.439548
 H        -4.558743        -0.289401        -0.361377
 H        -3.365790         0.955376        -1.086381
 H        -2.665372        -0.967476         1.336567
