19
Iteration:  4289charge 0 multiplicity 1
 O         0.198547        -0.164668         0.037781
 C        -0.922665         0.393255         0.808668
 C        -1.310864         1.893649         0.672128
 C        -2.294337         1.320238         1.636207
 C        -1.130176         0.547563         2.359836
 O        -3.564343         1.978263         2.017870
 C        -4.473358         1.517959         0.946954
 C        -3.544469         0.442935        -0.150745
 C        -2.393673         0.016842         0.752819
 H         0.012694        -1.154995         0.170517
 H        -0.540468         2.501209         1.116540
 H        -1.477358         2.243139        -0.322340
 H        -0.265179         1.006825         2.820314
 H        -1.400091        -0.320269         2.952969
 H        -5.311480         0.973157         1.499435
 H        -4.788066         2.346672         0.413455
 H        -4.276938        -0.451724        -0.444848
 H        -3.255083         0.978489        -1.042982
 H        -2.670563        -0.916731         1.267245
