19
Iteration:  1252
 O        -0.019398        -0.321844         0.043407
 C        -0.908571         0.439829         0.816010
 C        -1.312416         1.983208         0.778286
 C        -2.273003         1.364400         1.636715
 C        -1.178222         0.549383         2.404988
 O        -3.535259         1.698965         2.045249
 C        -4.332367         1.540408         0.879023
 C        -3.522145         0.581098        -0.165133
 C        -2.343377         0.043013         0.684360
 H         0.753240         0.321372        -0.143006
 H        -0.593797         2.649179         1.236352
 H        -1.507997         2.397008        -0.271847
 H        -0.572744         1.132931         2.940139
 H        -1.574154        -0.390009         2.870960
 H        -5.233320         1.078104         1.169347
 H        -4.657282         2.522373         0.499540
 H        -4.083619        -0.212715        -0.538513
 H        -3.291621         1.217016        -1.064748
 H        -2.589948        -0.976975         1.108285
