19
Iteration:  3162charge 0 multiplicity 1
 O         0.251696        -0.045886         0.145866
 C        -0.945846         0.365845         0.730337
 C        -1.371923         1.915729         0.633466
 C        -2.329786         1.224596         1.674628
 C        -1.078632         0.496987         2.345900
 O        -3.519496         1.759765         2.065151
 C        -4.289391         1.758604         0.793554
 C        -3.699864         0.440592        -0.036386
 C        -2.512469        -0.064797         0.710519
 H         0.313726        -0.911996         0.617435
 H        -0.491657         2.552281         0.980522
 H        -1.832340         2.271445        -0.276640
 H        -0.255522         1.036318         2.865003
 H        -1.328197        -0.446232         2.714337
 H        -5.353473         1.733863         0.931983
 H        -4.036356         2.778083         0.200494
 H        -4.401430        -0.375251        -0.276953
 H        -3.361065         1.057021        -0.973222
 H        -2.894614        -0.967846         1.252755
