19
Iteration:  4098charge 0 multiplicity 1
 O         0.122976        -0.190990         0.149624
 C        -0.893001         0.495271         0.769635
 C        -1.348218         1.892516         0.451804
 C        -2.307048         1.239321         1.662944
 C        -1.068686         0.601173         2.364013
 O        -3.542220         1.761702         2.101268
 C        -4.313681         1.651500         0.871481
 C        -3.660342         0.481340        -0.123465
 C        -2.452551        -0.018494         0.751804
 H         0.645710        -0.708477         0.791956
 H        -0.748048         2.715181         0.916755
 H        -1.777255         1.914556        -0.545152
 H        -0.427159         1.375454         2.922863
 H        -1.076564        -0.348778         3.034911
 H        -5.281526         1.333070         1.031953
 H        -4.406583         2.644593         0.380069
 H        -4.219018        -0.290924        -0.015792
 H        -3.541989         0.823482        -1.121081
 H        -2.601702        -0.901578         1.243183
