19
Iteration:  2032
 O         0.143258        -0.329618         0.121049
 C        -0.902338         0.411137         0.780578
 C        -1.167690         1.930859         0.758272
 C        -2.277120         1.336636         1.691266
 C        -1.146019         0.427291         2.338798
 O        -3.566007         1.856582         2.041479
 C        -4.443953         1.418528         0.893596
 C        -3.680677         0.662665        -0.164930
 C        -2.425303         0.180404         0.693651
 H         0.911331         0.197309        -0.213992
 H        -0.403564         2.653829         1.163945
 H        -1.641870         2.377230        -0.184029
 H        -0.324668         1.021150         2.803692
 H        -1.338978        -0.606684         2.583837
 H        -5.305444         0.806247         1.191453
 H        -4.942422         2.222676         0.369448
 H        -4.153826        -0.203474        -0.687260
 H        -3.494481         1.225148        -1.101354
 H        -2.689659        -0.739072         1.220803
