19
Iteration:  3146charge 0 multiplicity 1
 O         0.194808        -0.176484         0.098583
 C        -0.931320         0.409123         0.731907
 C        -1.246686         1.879669         0.694316
 C        -2.300467         1.258895         1.704368
 C        -1.089560         0.528594         2.289833
 O        -3.597928         1.781921         2.055456
 C        -4.328529         1.600454         0.833906
 C        -3.684398         0.550135        -0.134701
 C        -2.478090         0.072018         0.766952
 H         0.573730        -0.840422         0.642487
 H        -0.588588         2.552980         1.263331
 H        -1.616074         2.324081        -0.278542
 H        -0.373653         1.240788         2.711203
 H        -1.248499        -0.385543         2.956966
 H        -5.445591         1.451312         1.054712
 H        -4.442553         2.538683         0.255510
 H        -4.354730        -0.317705        -0.238271
 H        -3.410386         0.870741        -1.104494
 H        -2.598760        -0.908336         1.265393
