19
Iteration:   663charge 0 multiplicity 1
 O         0.118063        -0.437287         0.204822
 C        -0.905132         0.488747         0.774176
 C        -1.240877         2.035623         0.735632
 C        -2.250899         1.346576         1.732636
 C        -1.018318         0.481089         2.320729
 O        -3.566210         1.774586         2.054500
 C        -4.506336         1.331197         0.900090
 C        -3.724782         0.747700        -0.267823
 C        -2.390587         0.192089         0.564059
 H         0.948998        -0.163323         0.481867
 H        -0.564690         2.765316         1.387484
 H        -1.501028         2.291402        -0.248533
 H        -0.112676         1.012238         2.742484
 H        -1.320680        -0.462732         2.725919
 H        -5.174424         0.598037         1.413890
 H        -5.024218         2.283010         0.663599
 H        -4.307971        -0.033703        -0.764344
 H        -3.397691         1.366159        -1.063128
 H        -2.599574        -0.735969         1.032153
