19
Iteration:   556
 O         0.101986        -0.218988         0.096833
 C        -0.929439         0.468878         0.801405
 C        -1.324239         1.924727         0.803287
 C        -2.326133         1.217805         1.685959
 C        -1.107498         0.535121         2.343991
 O        -3.560710         1.614495         2.112269
 C        -4.195363         1.687335         0.737715
 C        -3.669914         0.554044        -0.169293
 C        -2.483485         0.084985         0.705078
 H         0.626239         0.394445        -0.394942
 H        -0.612959         2.643485         1.184096
 H        -1.603483         2.213883        -0.147245
 H        -0.489800         1.212717         2.875949
 H        -1.280503        -0.370005         2.912991
 H        -5.240608         1.481338         0.978939
 H        -4.076379         2.646348         0.315250
 H        -4.269311        -0.350737        -0.273701
 H        -3.333640         0.807452        -1.225079
 H        -2.615866        -0.893521         1.171076
