19
Iteration:  4507
 O         0.166339        -0.246270         0.138026
 C        -0.893022         0.468422         0.706006
 C        -1.182030         1.961188         0.632631
 C        -2.274728         1.252679         1.639239
 C        -1.148974         0.604828         2.424967
 O        -3.468076         1.880477         1.964430
 C        -4.437753         1.460079         0.960020
 C        -3.705328         0.506270        -0.093667
 C        -2.440000         0.065382         0.670735
 H        -0.213965        -1.112713         0.004805
 H        -0.375640         2.562527         1.173417
 H        -1.759240         2.441086        -0.192006
 H        -0.443076         1.343471         2.931884
 H        -1.359075        -0.338400         3.008050
 H        -5.278448         0.914606         1.528643
 H        -4.825958         2.214764         0.266170
 H        -4.345213        -0.363911        -0.358423
 H        -3.581548         0.939682        -0.961552
 H        -2.660714        -0.769048         1.310369
