19
Iteration:  3831charge 0 multiplicity 1
 O         0.040703        -0.295442         0.128629
 C        -0.969692         0.426276         0.786911
 C        -1.185531         2.035136         0.607189
 C        -2.277486         1.381246         1.664693
 C        -1.037511         0.634972         2.399958
 O        -3.548538         1.735207         1.986833
 C        -4.385031         1.398306         0.827441
 C        -3.522630         0.533716        -0.121289
 C        -2.486684         0.078668         0.870536
 H        -0.338934        -0.686165        -0.743074
 H        -0.350745         2.690219         0.953351
 H        -1.641701         2.446827        -0.338245
 H        -0.224933         1.344004         2.802328
 H        -1.430155        -0.335010         2.892420
 H        -5.198940         0.812087         1.337789
 H        -4.882812         2.357439         0.477415
 H        -4.129909        -0.224701        -0.695035
 H        -3.134475         1.148974        -0.866878
 H        -2.827811        -0.654621         1.546758
