19
Iteration:  4960charge 0 multiplicity 1
 O         0.210672        -0.314490         0.133611
 C        -0.856761         0.344923         0.801653
 C        -1.230488         1.814235         0.587990
 C        -2.293402         1.281504         1.666805
 C        -1.072322         0.658412         2.296366
 O        -3.508516         1.826769         2.016635
 C        -4.497541         1.495906         0.927923
 C        -3.665681         0.671119        -0.119225
 C        -2.546207         0.091909         0.813696
 H         0.486793         0.226275        -0.685395
 H        -0.578136         2.584825         1.118817
 H        -1.561849         2.133340        -0.414225
 H        -0.420578         1.398033         2.876254
 H        -1.352041        -0.252856         2.911473
 H        -5.173248         0.775809         1.288052
 H        -4.951301         2.389518         0.680484
 H        -4.331487        -0.188432        -0.430472
 H        -3.239050         1.144726        -1.054808
 H        -2.823752        -0.910404         1.242225
