19
Iteration:  4240charge 0 multiplicity 1
 O         0.229363        -0.250538         0.192373
 C        -0.877041         0.377554         0.781185
 C        -1.228741         1.900798         0.614990
 C        -2.282946         1.293258         1.546105
 C        -1.187356         0.598526         2.250565
 O        -3.489908         1.966472         2.023228
 C        -4.453302         1.351606         1.071285
 C        -3.651612         0.568382        -0.140450
 C        -2.519223         0.082766         0.612016
 H         0.545920        -0.952321         0.746712
 H        -0.617183         2.708655         1.213393
 H        -1.536137         2.300918        -0.423941
 H        -0.501654         1.307564         2.821316
 H        -1.373227        -0.269422         3.006019
 H        -4.973978         0.592729         1.616395
 H        -5.194437         2.205061         0.712140
 H        -4.205025        -0.182419        -0.571652
 H        -3.383459         1.387546        -0.859389
 H        -2.846857        -0.824292         1.088054
