19
Iteration:  2084charge 0 multiplicity 1
 O         0.191920        -0.306843         0.196420
 C        -0.937807         0.345776         0.783525
 C        -1.220396         1.933134         0.695508
 C        -2.270295         1.282638         1.667918
 C        -1.132616         0.412941         2.346573
 O        -3.548020         1.947965         1.924778
 C        -4.446583         1.304153         1.065549
 C        -3.579150         0.802635        -0.191508
 C        -2.491490         0.135780         0.655185
 H         0.344981         0.059654        -0.738651
 H        -0.550183         2.646222         1.268286
 H        -1.641647         2.370772        -0.263549
 H        -0.312231         0.995730         2.945168
 H        -1.595309        -0.329484         2.904946
 H        -5.054079         0.428643         1.281750
 H        -5.196810         2.067219         0.770566
 H        -4.209768        -0.025991        -0.866218
 H        -3.133599         1.631847        -0.800195
 H        -2.673008        -0.909367         0.924878
