19
Iteration:   760charge 0 multiplicity 1
 O         0.043830        -0.366094         0.105373
 C        -0.908017         0.465815         0.699415
 C        -1.221443         2.043152         0.811007
 C        -2.292447         1.278802         1.683290
 C        -1.235912         0.516593         2.358926
 O        -3.550097         1.748910         1.988900
 C        -4.376157         1.473517         0.889738
 C        -3.556830         0.601027        -0.120643
 C        -2.356434         0.136993         0.664938
 H         0.680602         0.196503        -0.285153
 H        -0.477902         2.712883         1.311865
 H        -1.549391         2.546738        -0.026522
 H        -0.437001         1.039549         3.013320
 H        -1.346619        -0.515419         2.702930
 H        -5.207205         0.853406         1.291938
 H        -4.751821         2.452712         0.523609
 H        -4.186714        -0.217290        -0.546461
 H        -3.315817         1.183078        -0.956874
 H        -2.608295        -0.777766         1.255658
