19
Iteration:   179charge 0 multiplicity 1
 O        -0.039029        -0.202447         0.042013
 C        -0.913407         0.494709         0.836597
 C        -1.226564         2.007344         0.872381
 C        -2.340862         1.220047         1.774942
 C        -1.147847         0.408273         2.405687
 O        -3.674248         1.549022         2.079032
 C        -4.178931         1.724610         0.696211
 C        -3.575211         0.612626        -0.229908
 C        -2.371458         0.075931         0.688732
 H         0.876735         0.143835         0.039290
 H        -0.477239         2.631528         1.372175
 H        -1.374582         2.446101        -0.091530
 H        -0.284974         0.742809         3.064226
 H        -1.465677        -0.632426         2.441356
 H        -5.266442         1.635985         0.692797
 H        -4.021013         2.815402         0.399443
 H        -4.258352        -0.252419        -0.520212
 H        -3.495408         1.189471        -1.237042
 H        -2.446580        -1.000007         1.008028
