19
Iteration:  4827charge 0 multiplicity 1
 O         0.204737        -0.341395         0.196455
 C        -0.869543         0.463766         0.756506
 C        -1.222928         1.966340         0.648958
 C        -2.308499         1.313710         1.659466
 C        -0.986603         0.606179         2.312226
 O        -3.579197         1.778331         1.985855
 C        -4.435903         1.589303         0.881171
 C        -3.736655         0.435547        -0.112252
 C        -2.466176         0.117165         0.815069
 H        -0.060540        -0.192915        -0.782866
 H        -0.496665         2.796001         0.777150
 H        -1.722921         2.266672        -0.302224
 H        -0.128922         1.135222         2.847306
 H        -1.183092        -0.406885         2.862990
 H        -5.397525         1.369817         1.319423
 H        -4.500683         2.432228         0.322288
 H        -4.540580        -0.462074        -0.023594
 H        -3.720569         0.882873        -1.077108
 H        -2.598700        -0.920944         1.247648
