19
Iteration:  3936charge 0 multiplicity 1
 O         0.143061        -0.321889         0.239073
 C        -0.916791         0.416884         0.780201
 C        -1.209277         1.943293         0.599865
 C        -2.229499         1.309118         1.505022
 C        -1.150296         0.676144         2.319231
 O        -3.473659         1.789674         1.977695
 C        -4.518454         1.345424         1.086979
 C        -3.647699         0.651401        -0.163368
 C        -2.445983         0.145932         0.591517
 H         0.620092        -0.808307         0.993137
 H        -0.543259         2.701588         1.031895
 H        -1.660880         2.064241        -0.335718
 H        -0.467370         1.355951         2.775035
 H        -1.235371        -0.166550         2.991687
 H        -5.100633         0.476700         1.603000
 H        -5.166007         2.249814         0.780983
 H        -4.303053        -0.141657        -0.646136
 H        -3.320082         1.489683        -0.884434
 H        -2.777257        -0.765676         1.214730
