19
Iteration:  3176charge 0 multiplicity 1
 O         0.215998        -0.002409         0.173314
 C        -0.942937         0.447947         0.780433
 C        -1.403261         1.827101         0.597989
 C        -2.262869         1.167241         1.693627
 C        -1.144986         0.472700         2.315272
 O        -3.502542         1.737798         2.063935
 C        -4.179258         1.749480         0.752180
 C        -3.750411         0.533682        -0.106670
 C        -2.511556        -0.050393         0.780371
 H         0.510052        -0.955163         0.189431
 H        -0.900243         2.653200         0.945668
 H        -1.853560         2.021982        -0.378941
 H        -0.402493         1.164045         2.883409
 H        -1.347412        -0.434957         2.938621
 H        -5.235968         1.720889         1.184972
 H        -3.829865         2.627405         0.268788
 H        -4.653353        -0.127524        -0.073772
 H        -3.540065         0.593202        -1.144129
 H        -2.479352        -0.998397         1.267813
