19
Iteration:  1792charge 0 multiplicity 1
 O         0.113587        -0.287277         0.047390
 C        -0.897324         0.417578         0.771743
 C        -1.313037         1.945443         0.766035
 C        -2.298006         1.261411         1.681170
 C        -1.165423         0.486211         2.343660
 O        -3.491949         1.906556         1.993609
 C        -4.433251         1.375894         0.898665
 C        -3.588121         0.658374        -0.123283
 C        -2.456584         0.100277         0.670838
 H         0.964404        -0.193910         0.625812
 H        -0.430660         2.440904         0.952762
 H        -1.817484         2.336071        -0.141664
 H        -0.390591         1.159545         2.854189
 H        -1.474503        -0.358344         2.806778
 H        -5.019796         0.656803         1.535128
 H        -4.714284         2.423175         0.560466
 H        -4.168517        -0.012641        -0.699910
 H        -3.171400         1.393753        -0.729642
 H        -2.570684        -0.898609         1.101981
