19
Iteration:   558charge 0 multiplicity 1
 O         0.095383        -0.213735         0.098686
 C        -0.966939         0.478103         0.791319
 C        -1.308776         1.928555         0.819973
 C        -2.334367         1.228807         1.699205
 C        -1.096675         0.525127         2.332247
 O        -3.559576         1.628634         2.113549
 C        -4.202178         1.678952         0.745614
 C        -3.648799         0.513849        -0.190357
 C        -2.483608         0.108755         0.715450
 H         0.640983         0.363849        -0.387245
 H        -0.602042         2.594474         1.219305
 H        -1.583545         2.202885        -0.237657
 H        -0.434902         1.147700         2.875157
 H        -1.225995        -0.444013         2.939312
 H        -5.253667         1.555246         0.987906
 H        -4.078897         2.644444         0.294387
 H        -4.212620        -0.381863        -0.278784
 H        -3.366606         0.835814        -1.272255
 H        -2.629365        -0.912911         1.144196
