19
Iteration:  2148
 O         0.132281        -0.315274         0.169334
 C        -0.846467         0.430541         0.773984
 C        -1.199768         2.005234         0.722169
 C        -2.253855         1.244303         1.659870
 C        -1.175670         0.485192         2.371445
 O        -3.539050         1.739721         2.063983
 C        -4.380033         1.473702         0.893476
 C        -3.667754         0.676389        -0.190568
 C        -2.450684         0.157669         0.665598
 H        -0.180492        -0.295146        -0.722972
 H        -0.612876         2.787701         1.204325
 H        -1.600118         2.338838        -0.237923
 H        -0.521952         1.177675         2.994197
 H        -1.537089        -0.389256         2.809098
 H        -5.278775         1.093609         1.368101
 H        -4.657425         2.470569         0.443791
 H        -4.120523        -0.112616        -0.600056
 H        -3.372563         1.155674        -1.078634
 H        -2.576089        -0.902629         0.978019
