19
Iteration:  4986charge 0 multiplicity 1
 O         0.065636        -0.243638         0.198955
 C        -0.952318         0.393591         0.751469
 C        -1.268022         1.870912         0.576508
 C        -2.228800         1.315063         1.644251
 C        -1.114670         0.633728         2.374920
 O        -3.461602         1.846202         2.020118
 C        -4.458476         1.410541         1.000999
 C        -3.574381         0.649758        -0.158830
 C        -2.458840         0.013760         0.736377
 H         0.010515        -0.611451        -0.725418
 H        -0.512474         2.587688         0.945617
 H        -1.584683         2.279195        -0.435362
 H        -0.206337         1.212059         2.724798
 H        -1.320116        -0.239704         3.000311
 H        -5.312708         0.810794         1.340333
 H        -4.827118         2.417149         0.686222
 H        -4.098622        -0.142344        -0.645863
 H        -3.124178         1.340915        -0.968304
 H        -2.685168        -0.944645         1.107595
