19
Iteration:  1112
 O        -0.001650        -0.169091         0.108991
 C        -0.944514         0.413192         0.828983
 C        -1.330827         1.837001         0.689050
 C        -2.282190         1.246596         1.658508
 C        -1.130957         0.519925         2.412007
 O        -3.553962         1.703783         2.025302
 C        -4.218752         1.618148         0.849040
 C        -3.543782         0.578143        -0.160181
 C        -2.415610         0.024977         0.724254
 H         0.744360         0.413664        -0.151317
 H        -0.711703         2.651576         0.996870
 H        -1.829820         2.097615        -0.291904
 H        -0.446059         1.170895         2.796991
 H        -1.555662        -0.379450         2.978130
 H        -5.276618         1.427579         1.015254
 H        -4.192543         2.584545         0.338155
 H        -4.201012        -0.115738        -0.610586
 H        -3.290047         1.377279        -0.950842
 H        -2.618325        -0.852669         1.349681
