19
Iteration:   953charge 0 multiplicity 1
 O         0.118315        -0.244690         0.177578
 C        -0.894808         0.424907         0.734738
 C        -1.136510         1.933427         0.647548
 C        -2.269100         1.230681         1.615911
 C        -1.168445         0.458302         2.452039
 O        -3.463750         1.774970         1.966446
 C        -4.452248         1.386812         0.983893
 C        -3.701950         0.732301        -0.190255
 C        -2.492247         0.147358         0.630549
 H         1.029317         0.041459         0.344374
 H        -0.569472         2.736922         1.256812
 H        -1.425839         2.396556        -0.314382
 H        -0.596269         1.229037         3.034240
 H        -1.410909        -0.465863         2.834376
 H        -5.255472         0.692545         1.301964
 H        -4.953315         2.319665         0.674399
 H        -4.371288        -0.108927        -0.601824
 H        -3.397586         1.523453        -0.850246
 H        -2.799542        -0.822845         1.152398
