19
Iteration:  2013charge 0 multiplicity 1
 O         0.074228        -0.286413         0.114245
 C        -0.939224         0.437558         0.723524
 C        -1.295882         1.966631         0.720322
 C        -2.346118         1.211459         1.708077
 C        -1.054987         0.507499         2.357782
 O        -3.480547         1.801617         2.018898
 C        -4.417445         1.543803         0.890752
 C        -3.525921         0.626357        -0.163777
 C        -2.502810         0.035309         0.685190
 H         0.950216         0.248546         0.106207
 H        -0.582185         2.536965         1.249853
 H        -1.469374         2.403669        -0.234269
 H        -0.351378         1.081114         2.934524
 H        -1.556871        -0.423785         2.935402
 H        -5.303240         0.978091         1.354860
 H        -5.013010         2.402378         0.377221
 H        -4.138907        -0.034706        -0.699717
 H        -3.012816         1.307668        -0.855998
 H        -2.698675        -0.895307         1.271395
