19
Iteration:  3843
 O         0.080311        -0.261482         0.052932
 C        -0.916499         0.395250         0.772494
 C        -1.180907         1.870257         0.714001
 C        -2.235738         1.442081         1.679791
 C        -1.125170         0.669868         2.340992
 O        -3.619960         1.856764         2.010612
 C        -4.417144         1.340692         0.884934
 C        -3.557354         0.540733        -0.121256
 C        -2.426582         0.108269         0.803375
 H        -0.325699        -0.910538        -0.515011
 H        -0.436419         2.595255         1.116656
 H        -1.489702         2.139921        -0.354131
 H        -0.150575         1.119366         2.802756
 H        -1.400544        -0.101208         3.160962
 H        -5.205421         0.636324         1.255706
 H        -4.885052         2.230424         0.324706
 H        -4.096454        -0.263253        -0.637927
 H        -3.087867         1.165126        -0.825500
 H        -2.639308        -0.737071         1.399284
