19
Iteration:    48
 O        -0.025098        -0.408199         0.061316
 C        -0.919818         0.466900         0.834697
 C        -1.084399         2.078754         0.880061
 C        -2.294769         1.336986         1.693459
 C        -1.301719         0.368850         2.385389
 O        -3.536625         1.816765         1.960360
 C        -4.385553         1.174684         0.935751
 C        -3.508317         0.860436        -0.267376
 C        -2.405920         0.279204         0.556661
 H         0.869227        -0.315242         0.573079
 H        -0.367833         2.661186         1.553112
 H        -1.342689         2.406662        -0.094181
 H        -0.410326         0.904288         2.904654
 H        -1.688805        -0.428457         2.948376
 H        -4.694478         0.222259         1.306779
 H        -5.263540         1.824444         0.709241
 H        -4.050279         0.128836        -0.915277
 H        -3.206449         1.807484        -0.873935
 H        -2.721722        -0.740589         0.943853
