19
Iteration:  3179charge 0 multiplicity 1
 O         0.209299         0.009091         0.168606
 C        -0.926877         0.432058         0.776845
 C        -1.417440         1.804377         0.599110
 C        -2.300206         1.131773         1.689799
 C        -1.137366         0.494867         2.341411
 O        -3.507315         1.735940         2.057373
 C        -4.140000         1.745157         0.751098
 C        -3.752810         0.529868        -0.109684
 C        -2.505171         0.004816         0.776750
 H         0.469087        -0.960263         0.128753
 H        -0.883381         2.697944         0.971533
 H        -1.816390         1.927125        -0.441045
 H        -0.429748         1.152496         2.822316
 H        -1.366742        -0.471368         2.952147
 H        -5.166539         1.656585         1.179163
 H        -3.785229         2.622371         0.333499
 H        -4.648094        -0.079667         0.036843
 H        -3.598946         0.592230        -1.148605
 H        -2.507772        -0.968138         1.281639
