19
Iteration:  3903
 O         0.276688        -0.235054         0.212202
 C        -0.893377         0.398623         0.732774
 C        -1.117832         1.874683         0.589123
 C        -2.251364         1.309399         1.593607
 C        -1.165947         0.507394         2.273340
 O        -3.581158         2.019950         1.982041
 C        -4.526407         1.366693         1.074073
 C        -3.698543         0.577046        -0.141495
 C        -2.523845         0.110517         0.665180
 H         0.696392        -0.523007         1.093362
 H        -0.365345         2.588484         0.948893
 H        -1.440584         2.175738        -0.374956
 H        -0.411278         1.109304         2.723208
 H        -1.355052        -0.492672         2.589981
 H        -5.029829         0.466446         1.612571
 H        -5.411389         2.017320         0.876063
 H        -4.338473        -0.197612        -0.634380
 H        -3.316726         1.234108        -1.026245
 H        -2.689476        -0.858728         1.272988
