19
Iteration:  2142
 O         0.150601        -0.346562         0.154211
 C        -0.865386         0.440700         0.766658
 C        -1.234879         1.973837         0.776283
 C        -2.255547         1.309246         1.631412
 C        -1.196915         0.519738         2.359283
 O        -3.506615         1.739472         2.044933
 C        -4.441302         1.483982         0.924314
 C        -3.629001         0.671916        -0.143361
 C        -2.412112         0.151030         0.606262
 H        -0.113865        -0.398758        -0.778692
 H        -0.501691         2.691353         1.258299
 H        -1.565514         2.418988        -0.221044
 H        -0.673900         1.136780         3.089617
 H        -1.566676        -0.464171         2.868697
 H        -5.334626         0.878011         1.261067
 H        -4.663570         2.432580         0.493677
 H        -4.368416        -0.264824        -0.588582
 H        -3.232600         1.307948        -1.055811
 H        -2.516868        -0.835418         1.076734
