19
Iteration:  3811
 O         0.015020        -0.350678         0.241908
 C        -0.881472         0.504861         0.769842
 C        -1.360773         1.920164         0.638744
 C        -2.296137         1.272056         1.689570
 C        -1.027075         0.673514         2.309943
 O        -3.540211         1.800541         2.060051
 C        -4.354023         1.468638         0.857754
 C        -3.566458         0.544124        -0.131651
 C        -2.379906         0.074721         0.705949
 H        -0.056271        -0.319176        -0.724277
 H        -0.722251         2.741293         1.059345
 H        -1.787246         2.223589        -0.372612
 H        -0.259105         1.435281         2.765035
 H        -1.157764        -0.331556         2.869165
 H        -5.351231         1.117125         1.144685
 H        -4.623582         2.457852         0.368476
 H        -4.108277        -0.350356        -0.440358
 H        -3.281414         1.042916        -1.043952
 H        -2.522542        -0.917851         1.108060
