19
Iteration:  1157charge 0 multiplicity 1
 O         0.041005        -0.224656         0.039845
 C        -0.918509         0.425129         0.838770
 C        -1.337417         2.003526         0.835563
 C        -2.282238         1.280857         1.732506
 C        -1.052937         0.467509         2.363477
 O        -3.561394         1.699006         1.990800
 C        -4.307606         1.669574         0.777881
 C        -3.671320         0.459098        -0.116078
 C        -2.399637         0.087707         0.693477
 H         0.910365         0.115623         0.278356
 H        -0.561541         2.660079         1.227748
 H        -1.606676         2.340603        -0.203784
 H        -0.289144         1.122470         2.826552
 H        -1.373410        -0.541610         2.777277
 H        -5.426061         1.766969         0.865905
 H        -4.018853         2.458381         0.098126
 H        -4.346336        -0.412935        -0.228051
 H        -3.435468         0.870382        -1.155072
 H        -2.561665        -0.898803         1.151793
