19
Iteration:  1416
 O         0.033954        -0.198841         0.023200
 C        -1.011086         0.366195         0.709757
 C        -1.172590         1.899773         0.764172
 C        -2.242084         1.300931         1.716643
 C        -1.123412         0.507733         2.496055
 O        -3.527973         1.885168         1.950936
 C        -4.430284         1.392811         0.840954
 C        -3.567855         0.578687        -0.126408
 C        -2.465311         0.080208         0.712672
 H         0.830350         0.229784         0.274009
 H        -0.381482         2.536576         1.134726
 H        -1.501672         2.397184        -0.135231
 H        -0.269296         0.984030         2.977750
 H        -1.466901        -0.541041         2.990771
 H        -5.263628         0.867851         1.392079
 H        -4.900426         2.338330         0.423562
 H        -4.101682         0.054938        -0.830613
 H        -3.058487         1.326259        -0.726158
 H        -2.502232        -0.895216         1.174969
