19
Iteration:   413charge 0 multiplicity 1
 O         0.173988        -0.277273         0.082869
 C        -0.868951         0.386800         0.818935
 C        -1.296209         1.907334         0.732137
 C        -2.314119         1.251518         1.680365
 C        -1.099946         0.492640         2.387163
 O        -3.613502         1.799115         2.046823
 C        -4.416909         1.380391         0.922860
 C        -3.524702         0.898041        -0.299301
 C        -2.461288         0.145623         0.685296
 H         0.268611        -1.138205         0.621598
 H        -0.672103         2.719554         1.142643
 H        -1.674193         2.196528        -0.152761
 H        -0.306938         1.149666         2.780059
 H        -1.359567        -0.369655         2.897647
 H        -4.953246         0.474029         1.270646
 H        -5.137777         2.113393         0.743664
 H        -4.028266         0.061220        -0.819250
 H        -3.132111         1.542694        -1.070258
 H        -2.848482        -0.843496         1.013735
