19
Iteration:  4570charge 0 multiplicity 1
 O         0.128405        -0.304752         0.139574
 C        -0.879189         0.395699         0.849623
 C        -1.253037         1.934270         0.608025
 C        -2.254391         1.304758         1.583702
 C        -1.095275         0.665902         2.384569
 O        -3.526095         1.921471         1.955468
 C        -4.404861         1.282314         0.984844
 C        -3.596732         0.673286        -0.147703
 C        -2.493597         0.020323         0.723746
 H        -0.469131        -0.840555        -0.467434
 H        -0.509057         2.557938         1.154339
 H        -1.557952         2.223769        -0.375113
 H        -0.319355         1.359025         2.673701
 H        -1.445850        -0.093329         3.077724
 H        -4.892564         0.651164         1.696860
 H        -5.059551         2.008353         0.587281
 H        -4.295756        -0.017343        -0.648616
 H        -3.167152         1.651449        -0.743439
 H        -2.851646        -0.886814         1.315160
