19
Iteration:  4623charge 0 multiplicity 1
 O         0.165494        -0.358894         0.270343
 C        -0.884626         0.459050         0.790389
 C        -1.183174         1.972888         0.664609
 C        -2.298471         1.356242         1.545520
 C        -1.053025         0.594094         2.262878
 O        -3.469573         1.865078         1.987457
 C        -4.508631         1.401497         0.964460
 C        -3.714687         0.488650        -0.130289
 C        -2.536181         0.137252         0.713758
 H         0.037386        -0.315763        -0.729092
 H        -0.508043         2.556605         1.310627
 H        -1.383588         2.455715        -0.280856
 H        -0.275106         1.170524         2.692996
 H        -1.227406        -0.345415         2.791085
 H        -5.078075         0.806249         1.661875
 H        -5.020216         2.365032         0.768565
 H        -4.368990        -0.156357        -0.643540
 H        -3.205947         1.039379        -1.114026
 H        -2.620331        -0.794024         1.320381
