19
Iteration:  2844
 O        -0.011741        -0.228196         0.075482
 C        -0.955205         0.472845         0.794943
 C        -1.285062         1.971563         0.682375
 C        -2.318112         1.224816         1.659956
 C        -1.006015         0.532846         2.333048
 O        -3.542419         1.692268         2.103602
 C        -4.341590         1.691139         0.812380
 C        -3.538902         0.540838        -0.160970
 C        -2.446274         0.038201         0.744301
 H         0.722503        -0.499335         0.688291
 H        -0.671176         2.632078         1.158060
 H        -1.849953         2.234921        -0.170908
 H        -0.515346         1.311345         2.914920
 H        -1.264501        -0.571392         2.761730
 H        -5.425076         1.395588         1.075928
 H        -4.297937         2.648997         0.313351
 H        -4.093050        -0.432928        -0.357988
 H        -3.247008         0.936962        -1.156874
 H        -2.466643        -0.951484         1.149063
