19
Iteration:  3153charge 0 multiplicity 1
 O         0.233329        -0.136572         0.123219
 C        -0.970414         0.393198         0.697221
 C        -1.318048         1.879244         0.690555
 C        -2.319748         1.196117         1.661706
 C        -1.077577         0.533765         2.321134
 O        -3.613352         1.798372         2.049341
 C        -4.318237         1.672184         0.835021
 C        -3.653357         0.479594        -0.064927
 C        -2.491054         0.076662         0.717735
 H         0.614441        -0.899581         0.603854
 H        -0.529452         2.438939         1.133829
 H        -1.545168         2.321002        -0.263357
 H        -0.182144         1.101136         2.788137
 H        -1.255395        -0.409501         2.844338
 H        -5.328881         1.447301         1.190692
 H        -4.088598         2.589054         0.299585
 H        -4.388429        -0.292120        -0.335245
 H        -3.415374         0.926736        -1.045173
 H        -2.687600        -0.779289         1.352897
