19
Iteration:  3100
 O         0.068973        -0.310518         0.061260
 C        -0.966154         0.426571         0.776357
 C        -1.182987         1.968836         0.720805
 C        -2.314388         1.336161         1.676919
 C        -1.160015         0.623098         2.325982
 O        -3.522350         1.892777         2.037105
 C        -4.414291         1.294707         0.845180
 C        -3.482984         0.699858        -0.146247
 C        -2.468057         0.076608         0.739087
 H         0.182712        -1.233596         0.405791
 H        -0.306246         2.459101         1.066580
 H        -1.583311         2.364341        -0.223358
 H        -0.258233         1.148293         2.846855
 H        -1.493182        -0.313441         2.844319
 H        -4.919413         0.399289         1.442033
 H        -5.217660         1.998658         0.699622
 H        -4.114413         0.001354        -0.699176
 H        -3.118879         1.415301        -0.828089
 H        -2.714892        -0.857556         1.243753
