19
Iteration:  3907
 O         0.292379        -0.258117         0.219330
 C        -0.883149         0.442776         0.732253
 C        -1.104315         1.857790         0.571712
 C        -2.256088         1.316437         1.579278
 C        -1.153042         0.506718         2.265763
 O        -3.587626         1.997003         1.991258
 C        -4.529953         1.354155         1.069136
 C        -3.721780         0.594368        -0.176196
 C        -2.512333         0.130824         0.700997
 H         0.692200        -0.501452         1.024460
 H        -0.376543         2.562863         0.957950
 H        -1.469597         2.122699        -0.440901
 H        -0.402512         1.058818         2.856455
 H        -1.389205        -0.469531         2.773102
 H        -5.118775         0.557836         1.566240
 H        -5.413043         1.943931         0.940334
 H        -4.489934        -0.131273        -0.608174
 H        -3.368922         1.239602        -0.945309
 H        -2.670284        -0.833380         1.218115
