19
Iteration:  4019
 O         0.117936        -0.106700        -0.009786
 C        -0.961485         0.406410         0.735269
 C        -1.332496         1.928285         0.686585
 C        -2.293115         1.290879         1.680654
 C        -1.191804         0.636756         2.488418
 O        -3.449267         1.894641         1.946912
 C        -4.276277         1.551663         0.857217
 C        -3.611314         0.312405        -0.041495
 C        -2.433179        -0.008000         0.811832
 H         0.043296        -1.032012        -0.271501
 H        -0.610602         2.684237         1.110557
 H        -1.634559         2.490972        -0.228208
 H        -0.301377         1.147959         3.021636
 H        -1.691398        -0.265023         2.922997
 H        -5.307029         1.175509         1.146858
 H        -4.420962         2.386551         0.172793
 H        -4.196110        -0.542023        -0.210019
 H        -3.466439         0.638003        -1.044284
 H        -2.575424        -0.903814         1.395673
