19
Iteration:  1868
 O         0.018948        -0.320994         0.107162
 C        -0.872325         0.501218         0.791634
 C        -1.298597         1.946826         0.748677
 C        -2.265668         1.201813         1.724944
 C        -1.097102         0.509963         2.317471
 O        -3.544155         1.732468         2.052760
 C        -4.319662         1.589274         0.799094
 C        -3.601385         0.614156        -0.142884
 C        -2.421517         0.054818         0.693426
 H         0.778187         0.223620        -0.114478
 H        -0.851902         2.808085         1.141245
 H        -1.796212         2.339266        -0.153075
 H        -0.407505         1.265674         2.883052
 H        -1.279930        -0.383437         2.817729
 H        -5.350888         1.353125         1.225254
 H        -4.525068         2.629672         0.391096
 H        -4.274457        -0.189681        -0.389507
 H        -3.446559         1.012629        -1.105204
 H        -2.591025        -0.873698         1.193256
