19
Iteration:  3551
 O         0.054473        -0.423393         0.089535
 C        -0.845171         0.425072         0.785065
 C        -1.197668         2.050707         0.679189
 C        -2.322933         1.319998         1.696360
 C        -1.058460         0.569059         2.295474
 O        -3.574621         1.890954         2.005611
 C        -4.561747         1.297466         0.857438
 C        -3.501918         0.677651        -0.084315
 C        -2.448092         0.108804         0.705847
 H         0.820009        -0.770701         0.608473
 H        -0.554717         2.745543         1.219222
 H        -1.577628         2.369397        -0.266121
 H        -0.261251         1.254646         2.776884
 H        -1.353350        -0.283374         2.936871
 H        -5.204779         0.682500         1.501113
 H        -5.039580         2.237055         0.496980
 H        -4.035626         0.043633        -0.761924
 H        -3.240846         1.527965        -0.850030
 H        -2.666112        -0.877406         1.223996
