19
Iteration:  2396
 O         0.168367        -0.254871         0.200049
 C        -0.906102         0.386454         0.815980
 C        -1.183605         1.865989         0.674057
 C        -2.321145         1.210413         1.687930
 C        -1.107333         0.395726         2.349435
 O        -3.457156         1.943084         1.893689
 C        -4.502478         1.351659         1.036874
 C        -3.620991         0.768039        -0.216446
 C        -2.516826         0.187759         0.636648
 H         0.235103         0.274857        -0.557942
 H        -0.460077         2.558612         1.198152
 H        -1.435323         2.298711        -0.376214
 H        -0.594735         1.066587         3.016259
 H        -1.408419        -0.589745         3.082769
 H        -4.944876         0.535088         1.609407
 H        -5.243713         2.112934         0.942242
 H        -4.249355        -0.108521        -0.673868
 H        -3.236271         1.360982        -1.059115
 H        -2.797440        -0.713817         1.137240
