19
Iteration:  1364charge 0 multiplicity 1
 O         0.078079        -0.341717         0.186814
 C        -0.944728         0.465244         0.734000
 C        -1.123212         2.034727         0.658369
 C        -2.245235         1.305369         1.672999
 C        -1.134941         0.519152         2.364166
 O        -3.519690         1.774628         2.027858
 C        -4.485015         1.314858         0.928637
 C        -3.604563         0.711813        -0.210789
 C        -2.511344         0.128831         0.689437
 H         0.948779         0.095125         0.134160
 H        -0.170498         2.595213         1.079363
 H        -1.584315         2.449670        -0.211709
 H        -0.308426         0.862175         2.942506
 H        -1.436993        -0.523525         2.662362
 H        -5.312609         0.822108         1.357886
 H        -4.957561         2.203502         0.624019
 H        -4.036900        -0.120813        -0.892253
 H        -3.353067         1.458075        -0.958581
 H        -2.801848        -0.734454         1.421056
