19
Iteration:  3208charge 0 multiplicity 1
 O         0.183676        -0.065315         0.056557
 C        -0.925778         0.368260         0.698439
 C        -1.319489         1.898597         0.719315
 C        -2.338568         1.224444         1.723521
 C        -1.085578         0.566492         2.412080
 O        -3.635094         1.700577         2.055961
 C        -4.214573         1.789574         0.737211
 C        -3.726751         0.487592        -0.079185
 C        -2.405339        -0.117109         0.778022
 H         0.228564        -0.989673         0.028429
 H        -0.636060         2.562708         1.161697
 H        -1.711363         2.223546        -0.251607
 H        -0.283190         1.312277         2.775326
 H        -1.375684        -0.333606         2.969481
 H        -5.348819         2.005802         0.923667
 H        -3.735875         2.751586         0.246925
 H        -4.676887        -0.119698        -0.078311
 H        -3.298089         0.703707        -1.076357
 H        -2.413130        -1.097848         1.262868
