19
Iteration:  1340
 O         0.145828        -0.321975         0.155632
 C        -0.897242         0.386033         0.778794
 C        -1.180924         1.926832         0.708146
 C        -2.307774         1.314060         1.586512
 C        -1.158399         0.540432         2.291299
 O        -3.585082         1.796134         2.078539
 C        -4.453301         1.398953         0.985041
 C        -3.622485         0.744715        -0.166150
 C        -2.415493         0.100597         0.582499
 H         1.067298         0.047024         0.412130
 H        -0.441709         2.533040         1.265761
 H        -1.433697         2.296054        -0.309082
 H        -0.387288         1.164954         2.740582
 H        -1.521935        -0.266857         3.063549
 H        -5.167597         0.731407         1.354580
 H        -5.072316         2.238874         0.632093
 H        -4.187250        -0.010327        -0.588264
 H        -3.436355         1.395447        -1.019267
 H        -2.629890        -0.862565         1.139433
