19
Iteration:  4717charge 0 multiplicity 1
 O        -0.087509        -0.388264         0.045781
 C        -0.882196         0.498585         0.791161
 C        -1.302936         1.980564         0.628568
 C        -2.269310         1.311394         1.660383
 C        -1.083698         0.667286         2.428302
 O        -3.574453         1.742954         2.094821
 C        -4.268781         1.557335         0.798119
 C        -3.582161         0.427533        -0.104076
 C        -2.375869         0.158542         0.730291
 H         0.835577        -0.305479         0.163246
 H        -0.620026         2.755489         1.004192
 H        -1.662706         2.248745        -0.426654
 H        -0.449621         1.420373         2.994441
 H        -0.990673        -0.318282         2.939653
 H        -5.200246         1.147140         1.202545
 H        -4.473188         2.479189         0.320072
 H        -4.258383        -0.525101        -0.208747
 H        -3.581771         0.787223        -1.057337
 H        -2.499879        -0.785349         1.260035
