19
Iteration:  3071charge 0 multiplicity 1
 O         0.151116        -0.228369         0.160764
 C        -0.906257         0.406176         0.861934
 C        -1.145594         1.890719         0.721217
 C        -2.304698         1.300732         1.649997
 C        -1.097461         0.516726         2.357553
 O        -3.517864         1.925136         1.836664
 C        -4.461057         1.260888         1.051723
 C        -3.630587         0.736172        -0.163233
 C        -2.485253         0.171440         0.636329
 H         0.001181        -1.208264        -0.071058
 H        -0.266640         2.530088         0.979430
 H        -1.627120         2.056518        -0.296690
 H        -0.295920         1.000387         2.787116
 H        -1.421091        -0.389155         2.885807
 H        -5.047012         0.549421         1.556907
 H        -5.286349         2.033789         0.831507
 H        -4.163112        -0.099797        -0.684309
 H        -3.547597         1.640114        -0.768607
 H        -2.764154        -0.845156         1.066083
