19
Iteration:   525
 O         0.248481        -0.188123         0.182258
 C        -0.928240         0.433101         0.714868
 C        -1.377189         1.809477         0.611479
 C        -2.357987         1.147071         1.722366
 C        -1.138072         0.558369         2.406886
 O        -3.589573         1.638381         2.146972
 C        -4.311045         1.807333         0.894600
 C        -3.627193         0.604113        -0.197560
 C        -2.474016         0.016979         0.648251
 H         0.717292         0.541461        -0.344519
 H        -0.658176         2.558012         0.839000
 H        -1.677845         1.991648        -0.448501
 H        -0.521558         1.270636         2.874547
 H        -1.307401        -0.461540         2.884848
 H        -5.337657         1.663159         1.186878
 H        -4.081421         2.755752         0.417332
 H        -4.136660        -0.253828        -0.551905
 H        -3.107956         1.028966        -1.109773
 H        -2.534986        -1.028607         1.020609
