19
Iteration:   623
 O         0.019732        -0.168425         0.036463
 C        -0.953925         0.397515         0.761930
 C        -1.226859         1.883615         0.748384
 C        -2.293974         1.268243         1.710455
 C        -1.152556         0.563807         2.508678
 O        -3.510596         1.775732         2.059506
 C        -4.348624         1.489213         0.850276
 C        -3.551763         0.635262        -0.210339
 C        -2.466725        -0.026667         0.644343
 H         0.932059         0.274630         0.219688
 H        -0.441288         2.527688         0.970738
 H        -1.345470         2.215848        -0.309374
 H        -0.467440         1.164165         3.036611
 H        -1.455007        -0.365670         3.090181
 H        -5.145373         0.853461         1.227916
 H        -4.785110         2.378438         0.447768
 H        -4.331694         0.123492        -0.734971
 H        -3.193784         1.448080        -0.971648
 H        -2.649271        -1.075793         0.958056
