19
Iteration:  4449charge 0 multiplicity 1
 O         0.125543        -0.258932         0.043386
 C        -1.025174         0.499558         0.753903
 C        -1.332060         1.916567         0.605441
 C        -2.264351         1.207382         1.737557
 C        -1.045986         0.624400         2.366955
 O        -3.540689         1.799920         2.086214
 C        -4.344386         1.597091         0.798279
 C        -3.597294         0.504343        -0.145268
 C        -2.439012         0.005039         0.778017
 H         0.472333        -0.780464         0.849367
 H        -0.587252         2.687311         0.963971
 H        -1.797378         2.315793        -0.334921
 H        -0.355556         1.328055         2.806048
 H        -1.193625        -0.228803         3.071207
 H        -5.239682         1.179757         1.255252
 H        -4.624352         2.478705         0.162457
 H        -4.319786        -0.227245        -0.303671
 H        -3.260235         1.001675        -1.098883
 H        -2.537207        -0.866426         1.446453
