19
Iteration:  1978
 O         0.049034        -0.262657        -0.006803
 C        -0.944577         0.453060         0.787115
 C        -1.295954         1.916461         0.691126
 C        -2.259555         1.215975         1.722849
 C        -1.097479         0.551647         2.437670
 O        -3.600505         1.702019         2.129371
 C        -4.357985         1.654176         0.786612
 C        -3.561261         0.578330        -0.198232
 C        -2.434865         0.105836         0.753080
 H         1.009644        -0.037623         0.263669
 H        -0.497820         2.554403         1.103881
 H        -1.590337         2.096019        -0.383992
 H        -0.247426         1.169887         2.925296
 H        -1.387681        -0.396687         3.040455
 H        -5.226804         1.092065         1.182897
 H        -4.413338         2.640160         0.287146
 H        -4.115929        -0.283373        -0.534607
 H        -3.177923         1.051304        -1.126589
 H        -2.782120        -0.827734         1.153869
