19
Iteration:   675charge 0 multiplicity 1
 O         0.045336        -0.399979         0.217164
 C        -0.865481         0.495139         0.717160
 C        -1.146688         2.033076         0.756850
 C        -2.288305         1.197395         1.650073
 C        -1.093980         0.536738         2.350809
 O        -3.523323         1.800581         1.975275
 C        -4.470622         1.339293         0.968768
 C        -3.709958         0.741829        -0.235986
 C        -2.393990         0.203185         0.578747
 H         0.933000        -0.156266         0.639926
 H        -0.452159         2.692792         1.432511
 H        -1.546284         2.633651        -0.009118
 H        -0.309870         1.067334         2.866365
 H        -1.218291        -0.456779         2.814265
 H        -5.066094         0.482873         1.362666
 H        -5.196912         2.122830         0.750363
 H        -4.159119        -0.192019        -0.460249
 H        -3.782040         1.445139        -1.068822
 H        -2.591703        -0.813974         0.784360
