19
Iteration:  1502charge 0 multiplicity 1
 O         0.130002        -0.230960         0.058008
 C        -0.930554         0.372007         0.767403
 C        -1.329549         1.900091         0.625369
 C        -2.282524         1.285084         1.691110
 C        -1.102647         0.520458         2.413690
 O        -3.578914         1.666457         2.092877
 C        -4.327222         1.537227         0.857015
 C        -3.600329         0.647436        -0.187235
 C        -2.453993         0.133903         0.744735
 H         0.917654         0.060150         0.516831
 H        -0.458211         2.439334         0.890020
 H        -1.898971         2.247999        -0.233501
 H        -0.478531         1.149329         2.981074
 H        -1.343003        -0.279542         3.182935
 H        -5.451847         1.481530         1.038574
 H        -4.262221         2.574212         0.384731
 H        -4.193860        -0.140778        -0.582233
 H        -3.185879         1.295493        -1.018467
 H        -2.807454        -0.763297         1.114466
