19
Iteration:  3594charge 0 multiplicity 1
 O         0.134029        -0.230980         0.121461
 C        -0.902010         0.383044         0.813605
 C        -1.169398         1.890905         0.724839
 C        -2.248646         1.305828         1.559365
 C        -1.266830         0.552586         2.390320
 O        -3.420876         1.965967         1.952940
 C        -4.470041         1.280386         1.041972
 C        -3.705644         0.669734        -0.189761
 C        -2.430203         0.128798         0.608344
 H         0.410947        -1.004492         0.724958
 H        -0.429393         2.591014         1.111918
 H        -1.442915         2.189028        -0.261937
 H        -0.481463         1.199750         2.808465
 H        -1.642424        -0.280173         2.969228
 H        -4.682562         0.379578         1.574289
 H        -5.252409         2.011974         0.869188
 H        -4.213146        -0.092497        -0.800170
 H        -3.482356         1.403491        -1.098145
 H        -2.541579        -0.883572         1.154615
