19
Iteration:  2101
 O         0.135243        -0.269153         0.257737
 C        -0.907415         0.410657         0.806126
 C        -1.212566         1.891592         0.732064
 C        -2.276866         1.305205         1.673305
 C        -1.051829         0.402196         2.346821
 O        -3.492010         1.883123         1.968348
 C        -4.494188         1.295856         0.894433
 C        -3.626202         0.797401        -0.218484
 C        -2.476947         0.189842         0.661363
 H         0.016310        -0.201515        -0.764480
 H        -0.405207         2.516564         0.999992
 H        -1.575964         2.156845        -0.210884
 H        -0.286012         0.952169         2.790509
 H        -1.265483        -0.713531         2.608805
 H        -4.946517         0.565912         1.598401
 H        -5.281984         2.069039         0.813603
 H        -4.113874         0.161900        -0.835875
 H        -3.531849         1.562424        -0.947725
 H        -3.005637        -0.605520         1.224510
