19
Iteration:  4495
 O         0.145738        -0.214794         0.121262
 C        -0.973963         0.464140         0.714117
 C        -1.153164         1.901442         0.572132
 C        -2.257388         1.264830         1.737192
 C        -1.117186         0.680940         2.441037
 O        -3.501393         1.824160         2.002675
 C        -4.367070         1.423832         0.865359
 C        -3.721198         0.526704        -0.123693
 C        -2.509787         0.073054         0.728008
 H         0.022137        -1.170077         0.251064
 H        -0.323941         2.631103         0.974128
 H        -1.474013         2.403464        -0.398326
 H        -0.264423         1.265247         2.896989
 H        -1.291183        -0.281843         3.027305
 H        -5.333040         0.926199         1.264341
 H        -4.682045         2.460393         0.727090
 H        -4.391227        -0.291813        -0.350203
 H        -3.426637         1.077822        -0.907067
 H        -2.609125        -0.985916         0.953937
