19
Iteration:   421
 O         0.161801        -0.264167         0.092334
 C        -0.920078         0.430705         0.784174
 C        -1.261455         1.909833         0.700987
 C        -2.388566         1.235764         1.738612
 C        -1.049725         0.498204         2.358675
 O        -3.615733         1.794162         2.029791
 C        -4.405652         1.406707         0.899274
 C        -3.478490         0.819399        -0.251264
 C        -2.448457         0.150629         0.704530
 H         0.045314        -1.275671         0.356544
 H        -0.744614         2.638527         1.317667
 H        -1.474114         2.347415        -0.331900
 H        -0.315102         1.005556         2.990505
 H        -1.395482        -0.331949         3.055165
 H        -4.858110         0.478877         1.295600
 H        -5.190729         2.231357         0.692818
 H        -4.121778         0.070210        -0.914401
 H        -3.077273         1.617706        -0.907038
 H        -2.837230        -0.873386         0.903075
