19
Iteration:  4756
 O         0.077279        -0.263370         0.028827
 C        -0.934459         0.414154         0.759581
 C        -1.346545         1.861126         0.572812
 C        -2.338952         1.256538         1.828368
 C        -0.998572         0.638770         2.321073
 O        -3.602710         1.809834         2.036696
 C        -4.294811         1.624258         0.791586
 C        -3.622547         0.496584        -0.078082
 C        -2.452474         0.017623         0.872615
 H         0.974202         0.066853         0.360605
 H        -0.593516         2.568945         0.916161
 H        -1.749259         2.186074        -0.353949
 H        -0.252642         1.358459         2.628341
 H        -1.017877        -0.257169         2.890470
 H        -5.297589         1.226506         1.031388
 H        -4.368868         2.651409         0.225728
 H        -4.169771        -0.379673        -0.221706
 H        -3.141347         0.850049        -1.079503
 H        -2.789296        -0.929903         1.374549
