19
Iteration:  4610
 O         0.082694        -0.327403         0.311600
 C        -0.985373         0.405829         0.678932
 C        -1.109434         2.012299         0.673236
 C        -2.223407         1.395797         1.626076
 C        -1.048538         0.601940         2.257741
 O        -3.540154         1.861607         1.999160
 C        -4.414620         1.306275         0.981428
 C        -3.717919         0.571904        -0.127277
 C        -2.436429         0.119918         0.674558
 H        -0.004402        -0.731050        -0.534310
 H        -0.254200         2.588597         1.062259
 H        -1.493645         2.472486        -0.277891
 H        -0.267218         1.232365         2.731580
 H        -1.280704        -0.308978         2.852552
 H        -5.235603         0.637240         1.320497
 H        -4.992766         2.123181         0.395610
 H        -4.283920        -0.338940        -0.361007
 H        -3.528618         1.322621        -0.995252
 H        -2.771101        -0.711469         1.298948
