19
Iteration:    13
 O         0.049287        -0.259046         0.047875
 C        -0.952642         0.406329         0.796602
 C        -1.138195         1.937983         0.781026
 C        -2.331316         1.190739         1.767213
 C        -1.181313         0.421033         2.447039
 O        -3.591926         1.791251         1.973674
 C        -4.433244         1.373898         0.819298
 C        -3.492876         0.850603        -0.176878
 C        -2.471894         0.140814         0.656899
 H         1.024306        -0.139289         0.450534
 H        -0.355554         2.634101         1.248393
 H        -1.289683         2.242989        -0.179275
 H        -0.322066         1.128686         2.754367
 H        -1.309199        -0.442642         2.997011
 H        -5.151839         0.643567         1.116352
 H        -4.982023         2.292702         0.504186
 H        -3.974178         0.274761        -0.980754
 H        -2.907242         1.695762        -0.661222
 H        -2.708979        -0.909841         0.943507
