19
Iteration:  1742
 O         0.069292        -0.355594         0.118930
 C        -0.879497         0.374207         0.736009
 C        -1.134899         1.980294         0.732541
 C        -2.253662         1.333032         1.552951
 C        -1.201424         0.557708         2.396024
 O        -3.544733         1.799719         1.978486
 C        -4.494151         1.285839         0.990440
 C        -3.586279         0.743059        -0.143443
 C        -2.415001         0.180942         0.664249
 H         0.852233         0.142967         0.035300
 H        -0.543569         2.700819         1.441337
 H        -1.346829         2.324762        -0.272792
 H        -0.507656         1.077817         3.009656
 H        -1.519216        -0.541577         2.704368
 H        -4.998093         0.550691         1.552450
 H        -4.940696         2.144207         0.655016
 H        -4.192911        -0.104099        -0.550524
 H        -3.507577         1.615007        -0.908988
 H        -2.774552        -0.684643         1.258521
