19
Iteration:  1006
 O        -0.000556        -0.276816         0.078337
 C        -0.910907         0.411523         0.840406
 C        -1.094255         1.925171         0.773239
 C        -2.312200         1.253120         1.652010
 C        -1.068880         0.552259         2.383269
 O        -3.503481         1.854569         1.871272
 C        -4.476945         1.294384         0.920099
 C        -3.595070         0.729306        -0.199935
 C        -2.545540         0.149938         0.741226
 H         0.987846        -0.233447         0.084347
 H        -0.438466         2.631529         1.315282
 H        -1.600427         2.405979        -0.074538
 H        -0.273785         1.150747         3.054948
 H        -1.278276        -0.499607         2.825755
 H        -4.876568         0.315427         1.381061
 H        -5.253363         2.082912         0.868756
 H        -3.943519         0.069380        -1.013746
 H        -3.134785         1.595902        -0.646109
 H        -2.750272        -0.753164         1.311497
