19
Iteration:  1422
 O         0.027159        -0.186820         0.020140
 C        -1.019373         0.409424         0.755538
 C        -1.143795         1.847088         0.757368
 C        -2.267181         1.292224         1.697560
 C        -1.145864         0.505309         2.447885
 O        -3.568925         1.868093         1.948547
 C        -4.424694         1.414281         0.868375
 C        -3.546679         0.610343        -0.096652
 C        -2.435907         0.093241         0.715889
 H         0.828273         0.261408         0.311701
 H        -0.339579         2.475099         1.213354
 H        -1.362259         2.269803        -0.278527
 H        -0.235850         0.907469         2.931868
 H        -1.401853        -0.425845         2.736750
 H        -5.192000         0.861829         1.422539
 H        -4.700404         2.326097         0.332809
 H        -4.072952        -0.294542        -0.659268
 H        -3.133489         1.366541        -0.825866
 H        -2.594559        -0.911957         1.194272
