19
Iteration:  4035charge 0 multiplicity 1
 O         0.107922        -0.102496         0.043108
 C        -0.887163         0.446436         0.822579
 C        -1.317342         1.935907         0.616544
 C        -2.229082         1.310538         1.692184
 C        -1.062879         0.544293         2.403630
 O        -3.553055         1.800435         1.997612
 C        -4.336794         1.569650         0.739677
 C        -3.706288         0.422017        -0.005886
 C        -2.408228         0.017858         0.790122
 H         0.029537        -1.094328         0.284314
 H        -0.645987         2.732838         0.901883
 H        -1.830164         2.026414        -0.332543
 H        -0.420472         1.211185         2.919852
 H        -1.213594        -0.359419         2.973187
 H        -5.331597         1.404969         1.109541
 H        -4.199123         2.472839         0.133093
 H        -4.436849        -0.494616        -0.048794
 H        -3.506734         0.667221        -1.092493
 H        -2.609174        -0.886968         1.426234
