19
Iteration:  4088charge 0 multiplicity 1
 O         0.134510        -0.199178         0.166616
 C        -0.939008         0.442777         0.803746
 C        -1.444769         1.872212         0.464785
 C        -2.279484         1.205366         1.656084
 C        -1.088618         0.714854         2.344119
 O        -3.477776         1.657249         2.085044
 C        -4.260837         1.677304         0.883201
 C        -3.635271         0.508913        -0.114865
 C        -2.462794         0.021711         0.741578
 H         0.614432        -0.719365         0.895924
 H        -1.027502         2.834630         0.759973
 H        -1.802316         2.092016        -0.528768
 H        -0.432984         1.452570         2.845471
 H        -1.327488        -0.284420         2.820578
 H        -5.212764         1.560305         1.245547
 H        -4.178695         2.641868         0.351277
 H        -4.292326        -0.262368        -0.187608
 H        -3.445045         0.701270        -1.150325
 H        -2.734080        -0.869631         1.212787
