19
Iteration:  4616
 O         0.109897        -0.331471         0.306863
 C        -0.951989         0.411095         0.724043
 C        -1.124357         1.996287         0.685932
 C        -2.269418         1.399767         1.579606
 C        -1.032956         0.601182         2.252909
 O        -3.512452         1.864044         2.000754
 C        -4.449461         1.337657         0.961051
 C        -3.729935         0.534679        -0.137429
 C        -2.480633         0.132210         0.670777
 H         0.023427        -0.610020        -0.685304
 H        -0.350211         2.577242         1.201346
 H        -1.449424         2.456109        -0.245939
 H        -0.257439         1.245710         2.720638
 H        -1.222605        -0.334746         2.778954
 H        -5.168064         0.670746         1.487144
 H        -4.916271         2.226944         0.634999
 H        -4.446757        -0.288204        -0.459595
 H        -3.293949         1.119229        -0.902003
 H        -2.674685        -0.738142         1.343980
