19
Iteration:  3841charge 0 multiplicity 1
 O         0.069359        -0.264157         0.064912
 C        -0.911998         0.403777         0.764388
 C        -1.175454         1.886693         0.712034
 C        -2.238379         1.452888         1.679710
 C        -1.115751         0.671834         2.343080
 O        -3.617524         1.834542         2.008073
 C        -4.395191         1.351340         0.872682
 C        -3.563077         0.538164        -0.117896
 C        -2.438186         0.099170         0.810477
 H        -0.308595        -0.928582        -0.600648
 H        -0.445780         2.623607         1.076313
 H        -1.508408         2.128663        -0.304382
 H        -0.181751         1.060269         2.774198
 H        -1.388365        -0.073799         3.140214
 H        -5.240664         0.686552         1.229212
 H        -4.930110         2.196194         0.396435
 H        -4.099431        -0.291945        -0.684025
 H        -3.039464         1.156732        -0.780220
 H        -2.693795        -0.725657         1.447993
