19
Iteration:  3774
 O         0.245283        -0.157518         0.290435
 C        -0.897513         0.414252         0.758169
 C        -1.285244         1.811715         0.554282
 C        -2.321577         1.247675         1.582446
 C        -1.073632         0.593597         2.228381
 O        -3.518659         1.706056         2.058166
 C        -4.346304         1.672236         0.808376
 C        -3.749933         0.489247        -0.012990
 C        -2.536617         0.044214         0.789853
 H         0.538628         0.182849        -0.517578
 H        -0.603251         2.553336         0.995226
 H        -1.683812         2.175265        -0.368879
 H        -0.322377         1.139180         2.824758
 H        -1.344266        -0.371569         2.814322
 H        -5.397788         1.607484         1.206270
 H        -4.120876         2.604532         0.277060
 H        -4.492475        -0.355432        -0.154754
 H        -3.542198         1.005241        -0.947013
 H        -2.787674        -0.801888         1.432360
