19
Iteration:  2080
 O         0.190961        -0.317051         0.183281
 C        -0.919964         0.378683         0.747241
 C        -1.219428         1.926021         0.726849
 C        -2.288544         1.279284         1.652895
 C        -1.150865         0.448729         2.357851
 O        -3.538378         1.953612         1.941842
 C        -4.418824         1.297360         1.031257
 C        -3.571566         0.744135        -0.157279
 C        -2.501157         0.133095         0.632715
 H         0.397895         0.079963        -0.667531
 H        -0.534393         2.542308         1.250651
 H        -1.497011         2.357046        -0.184138
 H        -0.486722         1.080614         2.890344
 H        -1.734415        -0.411187         2.853179
 H        -5.069096         0.447943         1.414519
 H        -5.182390         2.128254         0.857190
 H        -4.199177         0.304123        -0.831335
 H        -3.221439         1.518124        -0.797135
 H        -2.727907        -0.923382         0.950964
