19
Iteration:    66
 O        -0.013520        -0.374297         0.217028
 C        -0.880451         0.557517         0.687533
 C        -1.036261         2.045170         0.904802
 C        -2.248057         1.254335         1.668921
 C        -1.292638         0.330577         2.389541
 O        -3.510094         1.857616         1.925422
 C        -4.455101         1.242361         1.013844
 C        -3.629056         0.769751        -0.262511
 C        -2.366898         0.278748         0.469107
 H         0.960454        -0.182506         0.529439
 H        -0.235151         2.558140         1.503078
 H        -1.347663         2.733927         0.146146
 H        -0.721240         0.732344         3.189230
 H        -1.662324        -0.700214         2.359016
 H        -5.029241         0.364296         1.451268
 H        -5.215887         1.989324         0.711853
 H        -4.068964        -0.032715        -0.819786
 H        -3.502566         1.584733        -0.946573
 H        -2.564300        -0.722130         0.771411
