19
Iteration:  2072charge 0 multiplicity 1
 O         0.164623        -0.323195         0.175981
 C        -0.893983         0.436495         0.713751
 C        -1.191590         1.904582         0.780171
 C        -2.314588         1.275867         1.623409
 C        -1.246434         0.501481         2.344085
 O        -3.485136         1.928160         1.979581
 C        -4.427477         1.309640         0.979188
 C        -3.607660         0.713419        -0.142359
 C        -2.469742         0.086491         0.615376
 H         0.482035         0.164743        -0.626703
 H        -0.380172         2.465054         1.303899
 H        -1.403614         2.394317        -0.188185
 H        -0.546143         1.127018         3.006948
 H        -1.465196        -0.450353         2.775049
 H        -4.832943         0.594434         1.670082
 H        -5.157858         2.110847         0.684757
 H        -4.346731         0.190678        -0.902467
 H        -3.228462         1.587645        -0.709365
 H        -2.835916        -0.805299         1.167895
