19
Iteration:  4793
 O         0.165022        -0.220034         0.178893
 C        -0.986645         0.405012         0.743679
 C        -1.279429         1.901611         0.566386
 C        -2.293691         1.244284         1.660312
 C        -1.172239         0.638459         2.313457
 O        -3.458369         1.796009         1.980683
 C        -4.305486         1.630063         0.912962
 C        -3.690355         0.432928        -0.047818
 C        -2.452435        -0.012073         0.771104
 H         0.679349         0.553822        -0.251834
 H        -0.491079         2.502545         1.001798
 H        -1.764695         2.238292        -0.383646
 H        -0.322730         1.251033         2.716595
 H        -1.517543        -0.302602         2.838892
 H        -5.289718         1.467660         1.343221
 H        -4.351998         2.526327         0.438352
 H        -4.603173        -0.358284        -0.030212
 H        -3.574658         0.733714        -1.068395
 H        -2.566755        -0.919926         1.436428
