19
Iteration:  2081charge 0 multiplicity 1
 O         0.191708        -0.315229         0.187432
 C        -0.925015         0.369133         0.756364
 C        -1.219983         1.929178         0.717273
 C        -2.283946         1.280039         1.657150
 C        -1.145386         0.437958         2.355636
 O        -3.542075         1.953401         1.936667
 C        -4.423403         1.297192         1.042499
 C        -3.571719         0.758893        -0.165197
 C        -2.499998         0.135352         0.638190
 H         0.391842         0.082731        -0.707090
 H        -0.545827         2.566006         1.254775
 H        -1.529705         2.356212        -0.192472
 H        -0.439104         1.069499         2.906389
 H        -1.710199        -0.380820         2.862639
 H        -5.073279         0.444365         1.366324
 H        -5.196830         2.125099         0.839795
 H        -4.206187         0.224599        -0.845309
 H        -3.200186         1.535564        -0.793659
 H        -2.709073        -0.930218         0.937806
