19
Iteration:    93
 O         0.238482        -0.231087         0.163813
 C        -0.875708         0.284955         0.758633
 C        -1.075701         1.978327         0.901069
 C        -2.279789         1.239152         1.626270
 C        -1.229192         0.272694         2.342996
 O        -3.541288         1.900373         1.972948
 C        -4.457690         1.373504         0.927674
 C        -3.727038         0.831684        -0.229270
 C        -2.491843         0.151878         0.559516
 H         1.012490         0.372207         0.566313
 H        -0.450977         2.696958         1.513489
 H        -1.505877         2.426760        -0.094735
 H        -0.490828         0.878119         2.949100
 H        -1.840908        -0.525342         2.828787
 H        -5.056238         0.557566         1.315655
 H        -5.148109         2.149881         0.532785
 H        -4.360612         0.084302        -0.821910
 H        -3.472229         1.736224        -0.944932
 H        -2.855758        -0.877262         0.954332
