19
Iteration:  2525
 O         0.204363        -0.204200         0.037927
 C        -0.860475         0.413459         0.814571
 C        -1.243864         1.957729         0.804540
 C        -2.320873         1.237669         1.697791
 C        -1.109625         0.467890         2.367153
 O        -3.589175         1.758141         2.016552
 C        -4.343854         1.602736         0.773131
 C        -3.696008         0.583309        -0.106852
 C        -2.441918         0.106201         0.744673
 H        -0.382846        -0.630493        -0.673295
 H        -0.380255         2.462876         1.222270
 H        -1.614572         2.345069        -0.198061
 H        -0.341039         1.066320         2.916919
 H        -1.390056        -0.401472         2.906884
 H        -5.371279         1.258632         1.173821
 H        -4.337914         2.562042         0.302557
 H        -4.332752        -0.304037        -0.151857
 H        -3.554443         1.081438        -1.130954
 H        -2.596201        -0.931767         1.256735
