19
Iteration:  1070
 O         0.103038        -0.288102         0.170726
 C        -0.875034         0.396361         0.783028
 C        -1.221645         1.935372         0.752780
 C        -2.288463         1.292115         1.677125
 C        -1.053566         0.498525         2.316190
 O        -3.627747         1.772748         1.962679
 C        -4.409475         1.509772         0.902185
 C        -3.656741         0.611695        -0.078847
 C        -2.447751         0.091776         0.615191
 H         0.842678         0.274434         0.172179
 H        -0.628172         2.611637         1.293653
 H        -1.528131         2.458840        -0.164304
 H        -0.238558         1.157360         2.641906
 H        -1.214905        -0.525490         2.752314
 H        -5.446921         1.381952         1.272183
 H        -4.454431         2.423371         0.289598
 H        -4.281143        -0.130268        -0.503372
 H        -3.204247         1.229757        -0.863310
 H        -2.688807        -0.875301         0.998917
