19
Iteration:  4656
 O         0.220675        -0.202063         0.191630
 C        -0.975248         0.364650         0.754524
 C        -1.318022         1.759018         0.538394
 C        -2.284619         1.314066         1.673819
 C        -1.155309         0.555469         2.415514
 O        -3.435981         1.928945         1.974880
 C        -4.392416         1.530835         0.945170
 C        -3.678126         0.523624        -0.081083
 C        -2.463505         0.044803         0.729654
 H         0.423744         0.509528        -0.368338
 H        -0.486324         2.468741         0.759060
 H        -1.686750         2.029927        -0.435002
 H        -0.295822         1.084096         2.759570
 H        -1.359854        -0.346963         2.999157
 H        -5.131108         0.841949         1.418042
 H        -5.085465         2.290332         0.430023
 H        -4.388741        -0.162670        -0.447263
 H        -3.363833         1.326182        -0.975997
 H        -2.631328        -0.982540         1.125651
