19
Iteration:  2549charge 0 multiplicity 1
 O         0.127347        -0.140616         0.149525
 C        -0.922893         0.439701         0.670974
 C        -1.267506         1.950218         0.724507
 C        -2.282081         1.213657         1.686434
 C        -1.193121         0.540378         2.395928
 O        -3.530974         1.683843         2.097758
 C        -4.272671         1.713775         0.818613
 C        -3.665585         0.484709        -0.156078
 C        -2.460677         0.032414         0.713091
 H        -0.150985        -0.509218        -0.740866
 H        -0.430387         2.483431         1.291248
 H        -1.461174         2.318543        -0.392089
 H        -0.447492         0.991364         2.925444
 H        -1.408347        -0.467292         2.888983
 H        -5.353401         1.490017         1.119813
 H        -4.001621         2.684587         0.425506
 H        -4.368076        -0.390409        -0.305220
 H        -3.338444         0.999479        -1.032252
 H        -2.471772        -0.991632         1.262200
