19
Iteration:  2044
 O         0.092738        -0.306322         0.161294
 C        -0.882199         0.440088         0.788567
 C        -1.136595         1.935547         0.777935
 C        -2.273351         1.340193         1.681221
 C        -1.122178         0.436331         2.349644
 O        -3.543852         1.805283         1.960878
 C        -4.443941         1.396950         0.937935
 C        -3.670715         0.622345        -0.199141
 C        -2.470541         0.229014         0.579228
 H         0.645432         0.312998        -0.261190
 H        -0.294797         2.511686         1.201204
 H        -1.324507         2.198461        -0.300127
 H        -0.348247         0.824462         3.019057
 H        -1.521442        -0.410424         3.004230
 H        -5.005768         0.718972         1.624861
 H        -4.974203         2.302315         0.620969
 H        -4.364473        -0.173402        -0.378907
 H        -3.446916         1.393070        -0.951534
 H        -2.817716        -0.671852         1.112274
