19
Iteration:  2093
 O         0.166798        -0.282052         0.234503
 C        -0.926738         0.346269         0.813910
 C        -1.227119         1.923602         0.694890
 C        -2.255760         1.291698         1.675216
 C        -1.096244         0.400658         2.343747
 O        -3.529074         1.908218         1.934352
 C        -4.505948         1.314624         0.996393
 C        -3.613498         0.851100        -0.242031
 C        -2.459570         0.147739         0.671871
 H         0.103624        -0.018379        -0.743929
 H        -0.495705         2.657433         1.063045
 H        -1.666793         2.265143        -0.235015
 H        -0.147489         0.785175         2.847998
 H        -1.286139        -0.538952         2.848141
 H        -4.870182         0.436694         1.589532
 H        -5.283820         2.070680         0.642175
 H        -3.966253        -0.056956        -0.765892
 H        -3.345025         1.667403        -0.900082
 H        -2.887917        -0.794290         1.143822
