19
Iteration:  1849charge 0 multiplicity 1
 O         0.066899        -0.379968         0.050879
 C        -0.939089         0.450565         0.721342
 C        -1.290704         2.060347         0.729225
 C        -2.317210         1.292493         1.672014
 C        -1.111280         0.526590         2.413298
 O        -3.569836         1.746191         2.084288
 C        -4.342628         1.531252         0.848151
 C        -3.554253         0.541948        -0.153252
 C        -2.417563         0.141029         0.704066
 H         0.879826         0.075954         0.035881
 H        -0.450484         2.498060         1.276693
 H        -1.539643         2.562172        -0.209450
 H        -0.390751         1.020212         2.972080
 H        -1.310104        -0.533366         2.783915
 H        -5.396975         1.247241         1.159721
 H        -4.700665         2.552238         0.552312
 H        -4.218529        -0.250952        -0.444749
 H        -3.200662         1.082558        -1.074599
 H        -2.621335        -0.853871         1.200937
