19
Iteration:  4748charge 0 multiplicity 1
 O         0.009112        -0.266109         0.047165
 C        -1.004395         0.385166         0.702548
 C        -1.329035         1.935627         0.612003
 C        -2.274054         1.323049         1.692792
 C        -0.978814         0.647906         2.378100
 O        -3.614716         1.749365         2.062443
 C        -4.290324         1.648350         0.766230
 C        -3.557505         0.443381        -0.041526
 C        -2.452588         0.003932         0.854304
 H         0.908448        -0.034129         0.485857
 H        -0.521155         2.485407         1.039499
 H        -1.729198         2.391026        -0.327758
 H        -0.257844         1.443474         2.658824
 H        -1.026160        -0.313478         2.870687
 H        -5.276807         1.327012         1.083260
 H        -4.404547         2.530855         0.282931
 H        -4.241813        -0.483456        -0.390243
 H        -3.117018         0.948428        -0.930155
 H        -2.678471        -0.883980         1.532749
