19
Iteration:  1518charge 0 multiplicity 1
 O         0.081551        -0.200075         0.032731
 C        -0.944678         0.416792         0.749542
 C        -1.245984         1.900998         0.725417
 C        -2.316343         1.203554         1.730143
 C        -1.175802         0.570424         2.385528
 O        -3.577455         1.710477         2.067114
 C        -4.328234         1.672510         0.805914
 C        -3.558688         0.584152        -0.117378
 C        -2.421736         0.010319         0.672473
 H         0.975702         0.028508         0.428486
 H        -0.637204         2.712004         1.255968
 H        -1.584147         2.139396        -0.299193
 H        -0.298208         1.192273         2.826565
 H        -1.349633        -0.409913         2.792606
 H        -5.181586         1.142671         1.134286
 H        -4.500932         2.681301         0.420333
 H        -4.319240        -0.248820        -0.165822
 H        -3.330758         1.035613        -1.057088
 H        -2.611659        -0.951261         1.277153
