19
Iteration:  3624
 O         0.283568        -0.190834         0.232336
 C        -0.910395         0.417986         0.746846
 C        -1.130121         1.932673         0.656446
 C        -2.257205         1.290746         1.617943
 C        -1.147192         0.422581         2.308801
 O        -3.458122         1.964485         1.919227
 C        -4.559227         1.355478         0.938633
 C        -3.743172         0.602311        -0.107278
 C        -2.536281         0.139717         0.744488
 H        -0.032699        -1.038895         0.036463
 H        -0.316689         2.541581         1.134423
 H        -1.606368         2.204414        -0.277083
 H        -0.353525         0.951120         2.722358
 H        -1.430885        -0.496140         2.803613
 H        -5.196037         0.727885         1.584687
 H        -5.202478         2.167123         0.604883
 H        -4.322405        -0.150767        -0.776755
 H        -3.403118         1.370008        -0.759149
 H        -2.593323        -0.782626         1.264201
