19
Iteration:   317
 O         0.129779        -0.169123         0.127356
 C        -0.963592         0.366742         0.760190
 C        -1.232383         1.909272         0.780976
 C        -2.326695         1.258463         1.711431
 C        -1.204943         0.433183         2.334356
 O        -3.539521         1.883755         2.071796
 C        -4.385657         1.365236         0.846272
 C        -3.437397         0.727844        -0.211613
 C        -2.498321         0.048988         0.727270
 H        -0.006043        -0.281303        -0.814338
 H        -0.519531         2.598482         1.423705
 H        -1.353523         2.337847        -0.160453
 H        -0.307386         0.941585         2.791908
 H        -1.587791        -0.440108         2.773971
 H        -5.273954         0.756604         1.128946
 H        -4.758611         2.264398         0.478669
 H        -3.936819         0.259444        -0.963105
 H        -2.938767         1.549768        -0.636776
 H        -2.837465        -0.939378         1.047296
