19
Iteration:  3310charge 0 multiplicity 1
 O         0.243306        -0.265557         0.239649
 C        -0.857850         0.421517         0.772994
 C        -1.167208         1.922645         0.643621
 C        -2.257946         1.307313         1.625531
 C        -1.278122         0.452966         2.285358
 O        -3.473884         1.953387         1.957171
 C        -4.458902         1.277281         1.027684
 C        -3.743035         0.736435        -0.173566
 C        -2.413658         0.195907         0.604355
 H         0.038387        -1.262426         0.409074
 H        -0.436581         2.668909         0.947958
 H        -1.504615         2.286220        -0.298946
 H        -0.557487         0.895563         3.002626
 H        -1.574061        -0.573080         2.765135
 H        -4.862935         0.399416         1.707869
 H        -5.402713         1.776336         0.968620
 H        -4.248103        -0.036316        -0.743824
 H        -3.548273         1.600128        -0.796790
 H        -2.745374        -0.716860         1.086296
