19
Iteration:  4467
 O         0.115235        -0.239801         0.051314
 C        -0.869173         0.381541         0.811610
 C        -1.386379         1.872846         0.580830
 C        -2.280143         1.324360         1.607683
 C        -1.067043         0.638636         2.330857
 O        -3.570794         1.766700         2.045367
 C        -4.371082         1.511361         0.867368
 C        -3.526413         0.578733        -0.047173
 C        -2.485166         0.050543         0.820445
 H         0.556407        -0.970650         0.617120
 H        -0.711408         2.613291         0.837610
 H        -1.808592         2.295058        -0.300285
 H        -0.308091         1.270937         2.806441
 H        -1.264579        -0.251600         2.880783
 H        -5.384798         1.199902         1.038339
 H        -4.496749         2.568594         0.646069
 H        -4.181666        -0.194279        -0.620823
 H        -3.028120         1.344600        -0.911369
 H        -2.922752        -0.807237         1.431532
