19
Iteration:  3751charge 0 multiplicity 1
 O         0.267907        -0.092597         0.222035
 C        -0.941458         0.392532         0.773631
 C        -1.288303         1.842606         0.483503
 C        -2.296237         1.204277         1.696181
 C        -1.139686         0.547268         2.439755
 O        -3.501286         1.829159         2.079520
 C        -4.306995         1.682533         0.784222
 C        -3.770276         0.438982        -0.075434
 C        -2.497744        -0.027841         0.692158
 H         0.308296         0.184536        -0.776988
 H        -0.458094         2.444486         0.822232
 H        -1.775139         2.288878        -0.360357
 H        -0.404124         1.145201         3.049239
 H        -1.357711        -0.433240         2.982995
 H        -5.347310         1.596336         1.199706
 H        -4.050102         2.631524         0.362307
 H        -4.461663        -0.413544         0.149705
 H        -3.731193         0.653915        -1.213128
 H        -2.757893        -1.048876         1.074008
