19
Iteration:  3109
 O         0.013737        -0.294811         0.044001
 C        -0.933121         0.418956         0.773016
 C        -1.187494         1.940653         0.689152
 C        -2.284213         1.358181         1.682261
 C        -1.179155         0.587089         2.351748
 O        -3.559818         1.825823         1.993930
 C        -4.394463         1.350757         0.953601
 C        -3.469632         0.639034        -0.168119
 C        -2.411010         0.121272         0.734993
 H         0.129383        -1.059755         0.660438
 H        -0.521969         2.672053         1.131276
 H        -1.571929         2.370476        -0.196045
 H        -0.410227         1.268798         2.913528
 H        -1.425376        -0.273350         2.968072
 H        -5.111564         0.620220         1.419278
 H        -4.690762         2.275913         0.537340
 H        -3.990500        -0.145739        -0.716914
 H        -3.280791         1.433096        -0.938789
 H        -2.744859        -0.848589         1.043193
