19
Iteration:  3861
 O         0.094143        -0.225421         0.047301
 C        -0.861656         0.445074         0.829233
 C        -1.174994         1.933950         0.627635
 C        -2.338636         1.259733         1.672816
 C        -1.104714         0.596882         2.462862
 O        -3.502203         1.954119         1.918495
 C        -4.456348         1.340999         0.935718
 C        -3.590543         0.574168        -0.141513
 C        -2.444936         0.078840         0.741854
 H        -0.030933        -1.154565        -0.092286
 H        -0.428055         2.610448         1.042115
 H        -1.539820         2.302178        -0.293980
 H        -0.535470         1.214855         3.097339
 H        -1.207362        -0.326345         3.016364
 H        -5.200432         0.738550         1.507722
 H        -5.203001         2.034349         0.649727
 H        -4.079517        -0.398360        -0.497777
 H        -3.371946         1.242970        -1.027061
 H        -2.869503        -0.868984         1.230189
