19
Iteration:  3284
 O         0.165453        -0.166695         0.161198
 C        -0.943515         0.352879         0.807315
 C        -1.169544         1.841437         0.676145
 C        -2.244966         1.306614         1.653644
 C        -1.121945         0.557228         2.391437
 O        -3.486391         1.874174         1.976641
 C        -4.476282         1.335704         0.960976
 C        -3.639292         0.729760        -0.222150
 C        -2.514068         0.089288         0.647245
 H        -0.042207        -1.162170         0.064628
 H        -0.414388         2.427903         1.175313
 H        -1.368194         2.311684        -0.311294
 H        -0.213381         1.064129         2.769093
 H        -1.457153        -0.238522         3.016922
 H        -5.124753         0.665129         1.508435
 H        -5.316388         2.021727         0.717506
 H        -4.182254         0.048508        -0.966565
 H        -3.224607         1.656121        -0.662089
 H        -2.863794        -0.863169         1.139470
