19
Iteration:  2645charge 0 multiplicity 1
 O         0.166341        -0.262111         0.064019
 C        -0.934107         0.422333         0.767269
 C        -1.237559         1.927145         0.736646
 C        -2.349555         1.245405         1.676267
 C        -1.153483         0.431856         2.392419
 O        -3.558788         1.855991         2.018515
 C        -4.372155         1.549001         0.833212
 C        -3.628856         0.578041        -0.085430
 C        -2.442417         0.103207         0.717492
 H         0.606405         0.196592        -0.664795
 H        -0.527335         2.562216         1.175106
 H        -1.475426         2.282617        -0.286559
 H        -0.357225         0.996565         2.979010
 H        -1.358909        -0.482325         3.044891
 H        -5.331347         1.051276         1.280167
 H        -4.541808         2.457014         0.288276
 H        -4.261711        -0.303617        -0.400267
 H        -3.242707         1.235423        -0.928674
 H        -2.480457        -0.786448         1.373331
