19
Iteration:  3408
 O         0.051557        -0.186814         0.101329
 C        -0.948116         0.458678         0.819323
 C        -1.177667         1.975857         0.650164
 C        -2.369797         1.146557         1.774243
 C        -1.014285         0.566445         2.435033
 O        -3.565210         1.736874         2.041096
 C        -4.372808         1.641071         0.809104
 C        -3.605936         0.507637        -0.207780
 C        -2.458239         0.078189         0.700890
 H        -0.022807        -1.210110        -0.022782
 H        -0.438899         2.610689         1.050980
 H        -1.535396         2.388593        -0.231344
 H        -0.369086         1.373228         2.856014
 H        -0.901376        -0.395399         3.063662
 H        -5.348668         1.243606         1.157834
 H        -4.315326         2.595857         0.275860
 H        -4.300620        -0.205740        -0.654786
 H        -3.244642         1.026863        -1.109267
 H        -2.610748        -0.922210         1.201639
