19
Iteration:  4465charge 0 multiplicity 1
 O         0.121228        -0.248092         0.051829
 C        -0.868426         0.365369         0.771018
 C        -1.398443         1.903407         0.576689
 C        -2.295878         1.319940         1.642018
 C        -1.067833         0.646812         2.345374
 O        -3.564534         1.765768         2.037323
 C        -4.349341         1.514404         0.858419
 C        -3.536183         0.590672        -0.049776
 C        -2.489747         0.043493         0.845620
 H         0.601408        -0.962847         0.619388
 H        -0.710566         2.697073         0.879101
 H        -1.830699         2.249262        -0.371748
 H        -0.259739         1.280792         2.859012
 H        -1.297134        -0.315543         2.863670
 H        -5.428437         1.176553         1.063078
 H        -4.468958         2.582706         0.578738
 H        -4.174692        -0.175481        -0.673159
 H        -3.067410         1.234496        -0.830470
 H        -2.864898        -0.862720         1.345907
