19
Iteration:  4139charge 0 multiplicity 1
 O         0.101179        -0.130580         0.043986
 C        -0.920059         0.418661         0.807332
 C        -1.195753         1.960093         0.685321
 C        -2.318349         1.290735         1.608925
 C        -1.051721         0.542626         2.391529
 O        -3.499141         1.932654         1.944774
 C        -4.391648         1.459413         0.850696
 C        -3.658689         0.406734        -0.088414
 C        -2.477473         0.043611         0.825227
 H         0.079880        -1.137267         0.264818
 H        -0.360930         2.578374         1.132935
 H        -1.510082         2.445668        -0.261240
 H        -0.251625         1.209930         2.839679
 H        -1.387731        -0.346774         2.935395
 H        -5.200523         0.898087         1.371771
 H        -4.942157         2.347197         0.399030
 H        -4.477429        -0.417681        -0.240904
 H        -3.302546         0.723480        -1.102947
 H        -2.774326        -0.786393         1.501153
