19
Iteration:  2395charge 0 multiplicity 1
 O         0.171936        -0.253349         0.194727
 C        -0.915072         0.383759         0.826737
 C        -1.174071         1.859698         0.677247
 C        -2.320979         1.219099         1.691530
 C        -1.108455         0.402479         2.345117
 O        -3.455005         1.932411         1.889005
 C        -4.509722         1.359137         1.039255
 C        -3.621231         0.763036        -0.229398
 C        -2.520670         0.191968         0.638900
 H         0.226403         0.281938        -0.590170
 H        -0.445558         2.536674         1.221934
 H        -1.441446         2.264792        -0.385421
 H        -0.596850         1.064436         3.053682
 H        -1.363014        -0.560974         3.065761
 H        -4.952426         0.516013         1.619666
 H        -5.245040         2.114442         0.940317
 H        -4.231977        -0.088564        -0.664679
 H        -3.243949         1.371603        -0.992330
 H        -2.792376        -0.715966         1.150468
