19
Iteration:  4989
 O         0.054607        -0.246179         0.208339
 C        -0.962638         0.409104         0.754934
 C        -1.267687         1.876041         0.576242
 C        -2.234505         1.319846         1.657801
 C        -1.090725         0.620244         2.342459
 O        -3.445815         1.838279         2.012515
 C        -4.457815         1.421025         0.986865
 C        -3.547617         0.642501        -0.158479
 C        -2.449164         0.040420         0.737132
 H        -0.070906        -0.684016        -0.675329
 H        -0.606891         2.635274         0.948155
 H        -1.549183         2.293303        -0.359626
 H        -0.320862         1.157952         2.811952
 H        -1.415941        -0.250293         2.899545
 H        -5.345727         0.722370         1.389847
 H        -4.951659         2.474743         0.699293
 H        -4.180378        -0.213355        -0.584428
 H        -3.183393         1.250660        -0.906124
 H        -2.651923        -1.009335         1.120830
