19
Iteration:  1846
 O         0.057032        -0.379081         0.047030
 C        -0.950324         0.454798         0.721540
 C        -1.268630         2.031392         0.725179
 C        -2.281670         1.314115         1.686950
 C        -1.123028         0.509255         2.414207
 O        -3.577248         1.746338         2.085392
 C        -4.366138         1.514028         0.841511
 C        -3.554988         0.544504        -0.159462
 C        -2.414556         0.129001         0.695855
 H         0.892439         0.159647         0.117396
 H        -0.580770         2.607466         1.269720
 H        -1.482776         2.609682        -0.184071
 H        -0.290271         1.089416         2.958773
 H        -1.320078        -0.431921         2.797445
 H        -5.359323         1.280847         1.244535
 H        -4.637689         2.555521         0.535871
 H        -4.187839        -0.223120        -0.550698
 H        -3.255459         1.078091        -1.012318
 H        -2.612871        -0.780160         1.227685
