19
Iteration:  2702
 O         0.196866        -0.367130         0.193919
 C        -0.905444         0.406321         0.746201
 C        -1.144138         1.958552         0.645684
 C        -2.337143         1.316514         1.624864
 C        -1.197260         0.528893         2.372056
 O        -3.543976         1.856626         2.065885
 C        -4.441388         1.340435         0.963581
 C        -3.604123         0.750435        -0.167814
 C        -2.426006         0.147467         0.642690
 H        -0.041192        -0.157408        -0.764612
 H        -0.303750         2.559172         1.037971
 H        -1.558679         2.382898        -0.303508
 H        -0.594029         0.987175         3.088475
 H        -1.461659        -0.557528         2.662046
 H        -5.143294         0.640929         1.507431
 H        -5.186846         2.065999         0.821777
 H        -4.089723        -0.035712        -0.840414
 H        -3.220100         1.425424        -0.924629
 H        -2.837199        -0.728165         1.271751
