19
Iteration:   336
 O         0.127651        -0.209696         0.152162
 C        -0.907615         0.425389         0.814023
 C        -1.192989         1.894961         0.831081
 C        -2.321042         1.193004         1.690992
 C        -1.151309         0.391033         2.405262
 O        -3.504646         1.858605         1.903987
 C        -4.440803         1.450195         0.917338
 C        -3.569882         0.761386        -0.212728
 C        -2.458894         0.072987         0.596424
 H         0.252931         0.275753        -0.628527
 H        -0.455315         2.520751         1.305969
 H        -1.598038         2.416027        -0.014741
 H        -0.522940         1.021751         3.083256
 H        -1.313203        -0.589521         2.859841
 H        -5.055485         0.706674         1.487236
 H        -5.139121         2.235210         0.684052
 H        -4.262681         0.004496        -0.688046
 H        -3.206907         1.388146        -1.022367
 H        -2.815851        -0.832787         1.158820
