19
Iteration:  3547
 O         0.059986        -0.434395         0.074023
 C        -0.870201         0.428318         0.798918
 C        -1.211545         2.040065         0.681390
 C        -2.312631         1.305956         1.682319
 C        -1.044200         0.594145         2.332598
 O        -3.545259         1.879646         2.022228
 C        -4.547737         1.314199         0.866399
 C        -3.516719         0.661242        -0.132677
 C        -2.458643         0.120819         0.719322
 H         0.835252        -0.677004         0.640291
 H        -0.629697         2.825944         1.205587
 H        -1.549096         2.537624        -0.253181
 H        -0.423815         1.229028         2.850068
 H        -1.267250        -0.300927         2.886432
 H        -5.249916         0.731265         1.432242
 H        -4.901125         2.177577         0.371496
 H        -4.159010         0.000484        -0.803249
 H        -3.308309         1.424749        -0.775226
 H        -2.708407        -0.855850         1.156063
