19
Iteration:  3313charge 0 multiplicity 1
 O         0.249456        -0.276681         0.242711
 C        -0.847077         0.422109         0.753917
 C        -1.177934         1.921811         0.657183
 C        -2.241605         1.336496         1.635479
 C        -1.283273         0.455896         2.296342
 O        -3.454432         1.952889         1.962547
 C        -4.476426         1.260547         1.024199
 C        -3.769090         0.704327        -0.169210
 C        -2.419711         0.197322         0.584297
 H        -0.004425        -1.170144         0.487962
 H        -0.390538         2.724561         1.057276
 H        -1.544593         2.354733        -0.302662
 H        -0.485562         0.816731         2.988447
 H        -1.630753        -0.480534         2.743855
 H        -4.741396         0.436309         1.782587
 H        -5.428671         1.848712         0.880678
 H        -4.254584         0.034531        -0.841202
 H        -3.482516         1.604685        -0.836619
 H        -2.827576        -0.761852         0.998685
