19
Iteration:  2172charge 0 multiplicity 1
 O         0.126526        -0.179238         0.242310
 C        -0.992188         0.390919         0.730946
 C        -1.289744         1.879605         0.708611
 C        -2.275581         1.240905         1.722129
 C        -0.994491         0.439563         2.297243
 O        -3.591945         1.727840         2.086627
 C        -4.374191         1.626682         0.820315
 C        -3.575281         0.662455        -0.178898
 C        -2.495389         0.072117         0.722045
 H         0.038493        -0.006885        -0.753646
 H        -0.390033         2.469408         1.056677
 H        -1.629992         2.288442        -0.307744
 H        -0.353365         1.209546         2.818004
 H        -1.135949        -0.527989         2.672558
 H        -5.375155         1.270861         1.143485
 H        -4.480521         2.644353         0.430107
 H        -4.220178        -0.058423        -0.609388
 H        -3.076047         0.922764        -1.097429
 H        -2.634457        -0.942519         1.164325
