19
Iteration:   344
 O         0.141337        -0.229958         0.154838
 C        -0.879214         0.401248         0.786769
 C        -1.181630         1.946688         0.875239
 C        -2.265782         1.195903         1.710797
 C        -1.154329         0.377762         2.453433
 O        -3.486206         1.866931         1.878809
 C        -4.466209         1.405566         0.963608
 C        -3.650102         0.729771        -0.264397
 C        -2.463999         0.157591         0.605643
 H         0.603420         0.245950        -0.508812
 H        -0.607717         2.701707         1.344151
 H        -1.590953         2.236442        -0.180140
 H        -0.338941         0.935581         2.857854
 H        -1.518699        -0.628754         2.849101
 H        -5.223465         0.656867         1.240045
 H        -5.012395         2.420541         0.738302
 H        -4.347037        -0.155436        -0.627696
 H        -3.450907         1.420756        -1.148787
 H        -2.916662        -0.802426         0.961682
