19
Iteration:  2832charge 0 multiplicity 1
 O         0.007496        -0.303332         0.062063
 C        -0.917281         0.480695         0.729590
 C        -1.387775         1.990679         0.704789
 C        -2.274623         1.259794         1.751271
 C        -1.113514         0.525707         2.368592
 O        -3.519249         1.731667         2.087404
 C        -4.321372         1.579915         0.786707
 C        -3.556111         0.551056        -0.182729
 C        -2.387684         0.108612         0.745551
 H         0.873400        -0.280600         0.588334
 H        -0.718556         2.695220         1.057834
 H        -1.623129         2.361151        -0.270542
 H        -0.216760         0.929649         2.853273
 H        -1.263601        -0.531289         2.950571
 H        -5.353248         1.261054         1.207361
 H        -4.383930         2.562228         0.352114
 H        -4.355002        -0.246375        -0.437456
 H        -3.254681         1.050450        -1.109850
 H        -2.685065        -0.817949         1.204383
