19
Iteration:  1398charge 0 multiplicity 1
 O         0.077119        -0.324035        -0.003529
 C        -0.903969         0.446509         0.810631
 C        -1.299866         1.943917         0.791270
 C        -2.291676         1.192746         1.684876
 C        -1.161798         0.545963         2.428512
 O        -3.479640         1.900704         1.948060
 C        -4.398458         1.382443         0.907470
 C        -3.556922         0.721248        -0.242045
 C        -2.463215         0.043382         0.756734
 H         0.915152         0.099935         0.000897
 H        -0.582776         2.692343         1.359302
 H        -1.692564         2.455285        -0.085065
 H        -0.484514         1.238355         2.945842
 H        -1.381557        -0.374734         2.942314
 H        -4.939369         0.627098         1.430338
 H        -4.911971         2.241856         0.575030
 H        -4.126588        -0.240211        -0.605832
 H        -3.184188         1.387202        -1.036166
 H        -2.925388        -0.873636         1.337872
