19
Iteration:  2294
 O         0.196511        -0.185748         0.158344
 C        -0.937046         0.385023         0.781476
 C        -1.290128         1.927789         0.628003
 C        -2.299985         1.263755         1.662999
 C        -1.187549         0.494993         2.377199
 O        -3.507047         1.699511         2.122476
 C        -4.306232         1.615876         0.830079
 C        -3.607486         0.640769        -0.154038
 C        -2.545951         0.046234         0.733082
 H        -0.033697        -0.385707        -0.815680
 H        -0.547159         2.701467         1.046575
 H        -1.543827         2.148797        -0.442909
 H        -0.359792         1.030781         3.065858
 H        -1.372319        -0.507564         2.919892
 H        -5.328836         1.333301         1.176885
 H        -4.345358         2.634121         0.413481
 H        -4.168634        -0.104147        -0.637899
 H        -3.140941         1.180202        -1.018323
 H        -2.759929        -0.949766         1.139004
