19
Iteration:  2289charge 0 multiplicity 1
 O         0.174348        -0.163876         0.157839
 C        -0.952704         0.398544         0.819242
 C        -1.303243         1.909270         0.639825
 C        -2.297276         1.232370         1.690432
 C        -1.182565         0.480382         2.388567
 O        -3.486550         1.701603         2.089678
 C        -4.331865         1.654698         0.858729
 C        -3.606871         0.668145        -0.164713
 C        -2.490339         0.034089         0.712699
 H         0.061654        -0.335294        -0.768893
 H        -0.579573         2.627140         0.904574
 H        -1.587119         2.131913        -0.374660
 H        -0.303396         0.970932         2.886036
 H        -1.437330        -0.457240         2.790279
 H        -5.343747         1.323801         1.107893
 H        -4.369791         2.668643         0.359910
 H        -4.231530        -0.216158        -0.566067
 H        -3.161914         0.885762        -1.210151
 H        -2.734669        -0.934860         1.222056
