19
Iteration:  2909
 O         0.160498        -0.045116         0.159418
 C        -0.937562         0.438405         0.766272
 C        -1.321480         1.878617         0.661357
 C        -2.304855         1.190953         1.755918
 C        -1.067181         0.492772         2.320534
 O        -3.435459         1.787583         2.044684
 C        -4.319612         1.658620         0.755794
 C        -3.694029         0.483500        -0.065856
 C        -2.503639        -0.009226         0.711018
 H        -0.032893        -0.879504        -0.190384
 H        -0.678140         2.506750         1.209926
 H        -1.741636         2.238699        -0.274185
 H        -0.355999         1.108103         2.899596
 H        -1.328313        -0.510151         2.933650
 H        -5.457642         1.799956         0.899120
 H        -4.262125         2.599474         0.250970
 H        -4.388802        -0.431481        -0.206738
 H        -3.471010         0.893094        -1.084122
 H        -2.758640        -1.004388         1.075877
