19
Iteration:  2619charge 0 multiplicity 1
 O         0.088699        -0.186735         0.159819
 C        -0.965330         0.439916         0.805751
 C        -1.277724         1.899840         0.666748
 C        -2.293845         1.253737         1.680951
 C        -1.128588         0.489124         2.372921
 O        -3.476865         1.673978         2.069449
 C        -4.323214         1.677046         0.835255
 C        -3.646168         0.533491        -0.230772
 C        -2.478054         0.068375         0.717651
 H         0.502472         0.208946        -0.625884
 H        -0.481216         2.512917         1.138093
 H        -1.616287         2.242173        -0.278121
 H        -0.305514         1.079298         2.979156
 H        -1.498229        -0.292583         3.000995
 H        -5.204570         1.305008         1.221813
 H        -4.281196         2.730156         0.436287
 H        -4.297918        -0.293566        -0.217174
 H        -3.361156         0.898637        -1.220570
 H        -2.556916        -0.734701         1.353257
