19
Iteration:   172charge 0 multiplicity 1
 O        -0.055591        -0.263250         0.045426
 C        -0.857214         0.506834         0.869678
 C        -1.182760         2.038267         0.893338
 C        -2.405972         1.253992         1.722173
 C        -1.116984         0.383443         2.359277
 O        -3.701201         1.540554         2.101732
 C        -4.232565         1.692210         0.686980
 C        -3.544669         0.641302        -0.182185
 C        -2.359026         0.132555         0.646671
 H         0.845172         0.126010        -0.288537
 H        -0.575356         2.665025         1.538130
 H        -1.293818         2.553080        -0.208725
 H        -0.407027         0.768842         3.047465
 H        -1.250978        -0.696863         2.777913
 H        -5.308744         1.465169         0.644693
 H        -4.006270         2.674334         0.352171
 H        -4.284494        -0.186808        -0.408357
 H        -3.220739         1.108268        -1.121580
 H        -2.677019        -0.909134         1.001300
