19
Iteration:  2050
 O         0.072582        -0.292774         0.178667
 C        -0.912738         0.417284         0.803852
 C        -1.088354         1.962886         0.744655
 C        -2.236057         1.292360         1.625841
 C        -1.150751         0.439302         2.369054
 O        -3.496531         1.827760         1.953415
 C        -4.489889         1.360274         0.976157
 C        -3.647158         0.658178        -0.198914
 C        -2.473885         0.195367         0.611587
 H         0.554429         0.407145        -0.303351
 H        -0.366237         2.578418         1.338590
 H        -1.335747         2.413409        -0.235907
 H        -0.391034         1.004988         2.990061
 H        -1.623336        -0.353626         2.918051
 H        -5.140343         0.640030         1.491989
 H        -4.949739         2.360708         0.841529
 H        -4.341650        -0.202742        -0.588177
 H        -3.528303         1.281324        -1.103296
 H        -2.770085        -0.803684         0.983351
