19
Iteration:  1668charge 0 multiplicity 1
 O         0.030591        -0.239934         0.051473
 C        -0.891778         0.478510         0.770909
 C        -1.136140         1.947511         0.695887
 C        -2.279410         1.226311         1.681150
 C        -1.156765         0.521880         2.379488
 O        -3.541905         1.804440         2.038659
 C        -4.424785         1.460789         0.865784
 C        -3.614972         0.547718        -0.115891
 C        -2.444192         0.135890         0.644228
 H         0.970362        -0.148237         0.422540
 H        -0.450224         2.543811         1.379065
 H        -1.386972         2.510553        -0.157884
 H        -0.498981         0.996489         3.156722
 H        -1.572874        -0.401873         2.951104
 H        -5.391199         0.978679         1.395776
 H        -4.624158         2.510012         0.413858
 H        -4.211475        -0.329331        -0.464406
 H        -3.372202         1.133218        -1.039733
 H        -2.572773        -0.852054         1.068927
