19
Iteration:  2597charge 0 multiplicity 1
 O         0.198104        -0.258830         0.190123
 C        -0.910208         0.418734         0.762134
 C        -1.345667         1.910716         0.655826
 C        -2.326640         1.197540         1.768405
 C        -1.052914         0.565061         2.257032
 O        -3.608037         1.706798         2.083821
 C        -4.296709         1.677858         0.801357
 C        -3.647321         0.624111        -0.103251
 C        -2.509459        -0.033359         0.685991
 H         0.357507         0.054446        -0.726487
 H        -0.658713         2.594587         1.202540
 H        -1.872791         2.417453        -0.094672
 H        -0.351805         1.234088         2.892340
 H        -1.149191        -0.345798         2.852456
 H        -5.314026         1.628222         0.961193
 H        -3.881233         2.641751         0.397633
 H        -4.342809        -0.130935        -0.323364
 H        -3.246100         1.161803        -0.961900
 H        -2.581889        -0.965580         1.129332
