19
Iteration:  2563
 O         0.150816        -0.157383         0.182932
 C        -0.985025         0.428325         0.817992
 C        -1.351745         1.910885         0.677026
 C        -2.303845         1.233020         1.722294
 C        -1.068315         0.493414         2.331922
 O        -3.534482         1.664122         2.088197
 C        -4.200561         1.645370         0.803887
 C        -3.649640         0.602824        -0.130822
 C        -2.458436         0.034181         0.666921
 H        -0.053172        -0.421860        -0.690984
 H        -0.578658         2.677136         1.015988
 H        -1.905400         2.326163        -0.183472
 H        -0.370362         1.215433         2.761133
 H        -1.433572        -0.422411         2.863611
 H        -5.227087         1.665646         0.950089
 H        -4.056788         2.641919         0.259576
 H        -4.381065        -0.180920        -0.317011
 H        -3.554406         0.899754        -1.132121
 H        -2.747720        -0.893068         1.111408
