19
Iteration:  2781charge 0 multiplicity 1
 O         0.123065        -0.247158         0.164638
 C        -0.924778         0.354479         0.773779
 C        -1.121593         1.907397         0.695958
 C        -2.269483         1.272284         1.645738
 C        -1.141805         0.485248         2.404654
 O        -3.532775         1.863347         1.973628
 C        -4.443777         1.369068         0.948375
 C        -3.621884         0.702697        -0.187919
 C        -2.506649         0.109135         0.717208
 H         0.253593         0.451316        -0.558029
 H        -0.244507         2.570219         1.033474
 H        -1.514003         2.246838        -0.281257
 H        -0.483588         1.148203         2.956728
 H        -1.370768        -0.425054         2.884156
 H        -5.053996         0.719364         1.532439
 H        -4.900877         2.243936         0.472067
 H        -4.341052         0.049632        -0.643695
 H        -3.243734         1.430010        -0.926679
 H        -2.848101        -0.903856         0.984237
