19
Iteration:  1711
 O         0.024070        -0.296357         0.138226
 C        -0.960741         0.413290         0.701033
 C        -1.237452         1.866880         0.714011
 C        -2.296458         1.246957         1.703854
 C        -1.107937         0.525157         2.401630
 O        -3.522745         1.958563         2.032545
 C        -4.385033         1.298829         0.934642
 C        -3.525246         0.753286        -0.228561
 C        -2.455399         0.088573         0.673252
 H         0.712180         0.468746         0.127819
 H        -0.496702         2.619258         1.160852
 H        -1.581140         2.250932        -0.216362
 H        -0.381273         1.025411         2.994413
 H        -1.009016        -0.518780         2.825056
 H        -5.006490         0.442392         1.367447
 H        -5.116055         1.981093         0.521592
 H        -4.099768        -0.067221        -0.756495
 H        -3.300679         1.535885        -1.012686
 H        -2.791167        -0.850129         1.092814
