19
Iteration:  3434
 O         0.180929        -0.207617         0.116758
 C        -0.903971         0.431541         0.752530
 C        -1.384140         1.979450         0.648887
 C        -2.324304         1.268266         1.676291
 C        -1.142963         0.538157         2.366038
 O        -3.580541         1.610619         2.118252
 C        -4.206258         1.719949         0.691677
 C        -3.658770         0.550394        -0.043912
 C        -2.387396         0.061017         0.771846
 H        -0.024998        -1.019931        -0.494398
 H        -0.718236         2.708442         1.237001
 H        -1.671832         2.398012        -0.399283
 H        -0.470674         1.129912         3.097456
 H        -1.487262        -0.404551         2.826411
 H        -5.249485         1.500574         0.900308
 H        -3.695956         2.584585         0.190855
 H        -4.459883        -0.176055        -0.117613
 H        -3.678218         0.723728        -1.171498
 H        -2.714913        -0.682467         1.450524
