19
Iteration:  2253
 O         0.228276        -0.248767         0.151178
 C        -0.894042         0.503356         0.721367
 C        -1.300079         1.979304         0.813875
 C        -2.338196         1.123774         1.726677
 C        -1.090939         0.476763         2.285852
 O        -3.546487         1.761327         2.073750
 C        -4.295336         1.702068         0.730096
 C        -3.758310         0.494683        -0.147399
 C        -2.489283         0.027265         0.743537
 H         0.280171         0.201558        -0.719881
 H        -0.615126         2.600123         1.411282
 H        -1.696857         2.426157        -0.088360
 H        -0.302572         0.856320         2.687216
 H        -1.303725        -0.479718         2.838584
 H        -5.334497         1.883810         0.918033
 H        -3.907376         2.592300         0.316592
 H        -4.674201        -0.211987        -0.117559
 H        -3.319365         0.861868        -1.028247
 H        -2.702706        -0.828809         1.335259
