19
Iteration:  3350charge 0 multiplicity 1
 O         0.140886        -0.266554         0.152176
 C        -0.856512         0.478844         0.780226
 C        -1.083823         1.855045         0.744826
 C        -2.309830         1.330361         1.634115
 C        -1.154255         0.477904         2.338066
 O        -3.474472         1.914113         1.922670
 C        -4.512311         1.279060         0.958773
 C        -3.699452         0.714919        -0.156523
 C        -2.515070         0.207194         0.624833
 H         0.514096        -0.940943         0.661793
 H        -0.370868         2.471978         1.318692
 H        -1.452128         2.294605        -0.230060
 H        -0.392200         0.978838         2.911638
 H        -1.500399        -0.445780         2.755875
 H        -4.941925         0.444519         1.553300
 H        -5.316551         1.995063         0.735127
 H        -4.354948        -0.127816        -0.624483
 H        -3.383203         1.485153        -0.864019
 H        -2.550338        -0.827183         1.117835
