19
Iteration:  4862
 O         0.070947        -0.221686         0.134730
 C        -0.972327         0.453087         0.760849
 C        -1.331907         1.909890         0.574383
 C        -2.286148         1.315574         1.654560
 C        -1.082605         0.685043         2.331322
 O        -3.489012         1.841536         2.100241
 C        -4.293504         1.495065         0.927376
 C        -3.537375         0.497609        -0.179598
 C        -2.523675        -0.028068         0.819937
 H        -0.162967        -1.120150        -0.259553
 H        -0.496625         2.586867         0.962752
 H        -1.846194         2.098788        -0.343607
 H        -0.290548         1.380094         2.778627
 H        -1.285184        -0.276611         2.932490
 H        -5.188806         1.069081         1.309654
 H        -4.505810         2.386527         0.417033
 H        -4.117449        -0.287492        -0.756792
 H        -3.100015         1.115403        -1.035740
 H        -2.649740        -1.003980         1.211989
