19
Iteration:  3446
 O         0.205503        -0.159014         0.166913
 C        -0.940416         0.437410         0.757738
 C        -1.379949         2.025887         0.614653
 C        -2.305212         1.191336         1.708577
 C        -1.173461         0.506728         2.375710
 O        -3.543670         1.666379         2.092864
 C        -4.125651         1.757921         0.752698
 C        -3.691057         0.421776        -0.078519
 C        -2.498435         0.029279         0.736904
 H        -0.137266        -0.695311        -0.530686
 H        -0.642923         2.818475         0.975464
 H        -1.900344         2.340682        -0.380938
 H        -0.457593         1.092933         2.985998
 H        -1.353667        -0.481957         2.774084
 H        -5.181295         2.036649         0.773402
 H        -3.814029         2.752931         0.359732
 H        -4.447198        -0.381711         0.047036
 H        -3.354392         0.713644        -1.080871
 H        -2.590479        -0.964424         1.150923
