19
Iteration:   134
 O         0.075696        -0.221824         0.103116
 C        -0.952497         0.422305         0.816300
 C        -1.278599         1.928862         0.825266
 C        -2.306996         1.196611         1.705298
 C        -1.176379         0.359939         2.437116
 O        -3.555399         1.761011         2.089369
 C        -4.310776         1.516088         0.781895
 C        -3.497680         0.790564        -0.249133
 C        -2.469700         0.031846         0.571211
 H         0.723991         0.434206        -0.096064
 H        -0.601495         2.577140         1.456964
 H        -1.501949         2.413035        -0.027595
 H        -0.431042         1.023246         2.968211
 H        -1.486658        -0.539830         2.857403
 H        -5.210893         1.002896         1.109458
 H        -4.672874         2.536707         0.458161
 H        -4.233712         0.245750        -0.839603
 H        -2.955948         1.422440        -1.002945
 H        -2.710399        -0.909748         1.017707
