19
Iteration:  3988
 O         0.054542        -0.155026        -0.012018
 C        -0.896822         0.377408         0.892592
 C        -1.243383         1.918423         0.669181
 C        -2.230225         1.326820         1.698230
 C        -0.993793         0.639613         2.444240
 O        -3.586657         1.868370         1.888460
 C        -4.458659         1.423750         0.844184
 C        -3.627263         0.492251        -0.102220
 C        -2.436582         0.060651         0.842453
 H        -0.085356        -1.126568        -0.170341
 H        -0.488954         2.534030         1.223240
 H        -1.549708         2.106885        -0.348992
 H        -0.094443         1.171216         2.919638
 H        -1.326571        -0.260270         3.048239
 H        -5.197822         0.866228         1.257882
 H        -4.645042         2.304423         0.261874
 H        -4.090841        -0.371191        -0.446432
 H        -3.315223         1.093564        -0.964330
 H        -2.716986        -0.789962         1.362692
