19
Iteration:  1270
 O        -0.008554        -0.274539         0.013375
 C        -0.883594         0.466233         0.781389
 C        -1.105487         1.959132         0.750711
 C        -2.271348         1.193074         1.718475
 C        -1.115780         0.531067         2.461832
 O        -3.581362         1.766543         1.986606
 C        -4.424093         1.434878         0.798703
 C        -3.591483         0.625069        -0.157998
 C        -2.451523         0.166670         0.741940
 H         0.909790         0.151790         0.014797
 H        -0.390692         2.608113         1.260597
 H        -1.546554         2.338172        -0.149690
 H        -0.273734         1.199863         3.013919
 H        -1.348832        -0.421956         2.962463
 H        -5.378524         0.961466         1.210758
 H        -4.790825         2.437758         0.438609
 H        -4.268344        -0.228440        -0.446339
 H        -3.342787         1.091296        -1.091248
 H        -2.680317        -0.731238         1.275704
