19
Iteration:  1732
 O         0.051252        -0.357364         0.109182
 C        -0.882225         0.453035         0.820174
 C        -1.188317         1.965255         0.714401
 C        -2.257320         1.302017         1.601647
 C        -1.183210         0.544710         2.360464
 O        -3.489645         1.806787         1.944952
 C        -4.445505         1.308168         1.034223
 C        -3.594674         0.733951        -0.155417
 C        -2.460795         0.132632         0.650469
 H         0.789038         0.252415        -0.006103
 H        -0.439590         2.687684         1.229897
 H        -1.513552         2.412701        -0.203241
 H        -0.426607         0.933481         2.986018
 H        -1.751419        -0.221092         3.001271
 H        -5.127619         0.539779         1.288462
 H        -5.154497         2.008820         0.734205
 H        -4.064333         0.009048        -0.878113
 H        -3.089215         1.515932        -0.826705
 H        -2.727502        -0.814464         1.127580
