19
Iteration:   921
 O         0.178740        -0.254428         0.099132
 C        -0.899876         0.375041         0.746210
 C        -1.318698         1.906874         0.665378
 C        -2.326933         1.264404         1.679695
 C        -1.099463         0.461413         2.321335
 O        -3.578383         1.823938         2.112294
 C        -4.387769         1.496501         0.896985
 C        -3.533672         0.683175        -0.191923
 C        -2.516553         0.053289         0.723403
 H         0.952007         0.257524         0.318491
 H        -0.708785         2.658585         1.329821
 H        -1.672105         2.349957        -0.279469
 H        -0.421762         1.140086         2.913836
 H        -1.168201        -0.429704         2.840304
 H        -5.267725         0.881486         1.136823
 H        -4.675828         2.489582         0.524755
 H        -4.181184        -0.043228        -0.875568
 H        -3.129405         1.363721        -0.945044
 H        -3.002351        -0.877742         1.195561
