19
Iteration:  1673
 O         0.049803        -0.254672         0.040908
 C        -0.925203         0.491989         0.783387
 C        -1.123679         1.957085         0.726822
 C        -2.254832         1.227287         1.632993
 C        -1.135567         0.499860         2.423537
 O        -3.532696         1.836763         2.045986
 C        -4.471948         1.424856         0.869233
 C        -3.657477         0.567309        -0.132238
 C        -2.422087         0.111430         0.661868
 H         0.929466        -0.097679         0.385554
 H        -0.546380         2.594452         1.334377
 H        -1.486959         2.451275        -0.243113
 H        -0.480595         1.076805         3.148196
 H        -1.528540        -0.444449         2.685199
 H        -5.305438         1.036408         1.298606
 H        -4.557772         2.371192         0.362267
 H        -4.198720        -0.222008        -0.642123
 H        -3.229695         1.196421        -0.906035
 H        -2.647566        -0.837993         1.229583
