19
Iteration:   495
 O         0.176020        -0.176286         0.228773
 C        -0.969980         0.413749         0.734609
 C        -1.336203         1.989129         0.772358
 C        -2.253229         1.210341         1.674042
 C        -1.062904         0.440392         2.321767
 O        -3.515364         1.691377         1.964786
 C        -4.360068         1.642002         0.851860
 C        -3.681145         0.584638        -0.142353
 C        -2.502667         0.055130         0.710498
 H         0.507149         0.395987        -0.434327
 H        -0.591399         2.546227         1.344720
 H        -1.572201         2.351132        -0.338956
 H        -0.239520         0.908874         2.889663
 H        -1.267319        -0.617996         2.782519
 H        -5.385570         1.456827         1.204401
 H        -4.493595         2.653041         0.292874
 H        -4.251954        -0.286182        -0.465060
 H        -3.230136         1.009775        -1.055108
 H        -2.716120        -0.891872         1.248887
