19
Iteration:   808
 O         0.194814        -0.212207         0.121363
 C        -0.932464         0.444242         0.692107
 C        -1.403468         1.877251         0.686094
 C        -2.301638         1.137583         1.723748
 C        -1.089586         0.563487         2.364212
 O        -3.563755         1.662615         2.014574
 C        -4.281898         1.727850         0.847576
 C        -3.596204         0.603015        -0.105510
 C        -2.539482        -0.034182         0.746816
 H         0.893295         0.533577         0.029257
 H        -0.716602         2.537519         1.155318
 H        -1.790365         2.469674        -0.240575
 H        -0.424748         1.202341         2.858181
 H        -1.399607        -0.301346         3.063541
 H        -5.378314         1.574404         1.000347
 H        -4.086518         2.766618         0.477865
 H        -4.280063        -0.107768        -0.460707
 H        -3.148206         1.069085        -1.046549
 H        -2.695432        -0.999298         1.163161
