19
Iteration:   614
 O         0.023042        -0.150594        -0.028330
 C        -0.936542         0.350095         0.860508
 C        -1.220895         1.902051         0.783055
 C        -2.253802         1.197287         1.697570
 C        -1.129419         0.532368         2.519112
 O        -3.547199         1.834122         2.046545
 C        -4.351436         1.512465         0.853297
 C        -3.584904         0.595885        -0.258607
 C        -2.442914         0.026897         0.648383
 H         0.912703         0.356819         0.058469
 H        -0.434961         2.466235         1.202725
 H        -1.868969         2.177896        -0.135892
 H        -0.453391         1.301512         2.971124
 H        -1.399615        -0.407295         3.132795
 H        -5.240260         1.002001         1.238279
 H        -4.602969         2.482906         0.397769
 H        -4.151716        -0.244829        -0.708301
 H        -3.230937         1.307653        -1.116644
 H        -2.771696        -0.989078         1.061282
