19
Iteration:  2200charge 0 multiplicity 1
 O         0.220631        -0.222122         0.101466
 C        -0.915263         0.425857         0.760922
 C        -1.407192         1.922569         0.721250
 C        -2.320296         1.150337         1.690060
 C        -1.118947         0.511014         2.407824
 O        -3.535402         1.729722         2.095106
 C        -4.246704         1.725215         0.816699
 C        -3.642455         0.579616        -0.180296
 C        -2.507243         0.007971         0.720323
 H         0.208183         0.276451        -0.748022
 H        -0.733289         2.587260         1.182985
 H        -1.684640         2.208879        -0.240286
 H        -0.571891         1.186293         3.089520
 H        -1.188896        -0.548963         2.822152
 H        -5.297947         1.648231         1.057242
 H        -4.115718         2.752931         0.393476
 H        -4.543486        -0.150282        -0.421629
 H        -3.084576         0.773622        -1.118059
 H        -2.714965        -0.937169         1.237576
