19
Iteration:  4137
 O         0.117176        -0.136775         0.044258
 C        -0.924871         0.411644         0.783374
 C        -1.204749         1.964710         0.697919
 C        -2.316186         1.293438         1.588025
 C        -1.046638         0.533584         2.400103
 O        -3.503362         1.919403         1.942050
 C        -4.392195         1.473591         0.845856
 C        -3.649494         0.405563        -0.080143
 C        -2.486953         0.054130         0.847244
 H         0.123696        -1.065477         0.310130
 H        -0.411019         2.577228         1.080084
 H        -1.457353         2.514741        -0.219283
 H        -0.282562         1.190849         2.768772
 H        -1.349273        -0.296461         2.940817
 H        -5.256248         0.887618         1.372316
 H        -4.868091         2.388060         0.452549
 H        -4.517320        -0.460832        -0.288759
 H        -3.377040         0.719613        -1.139847
 H        -2.831050        -0.808247         1.580832
