19
Iteration:  3609charge 0 multiplicity 1
 O         0.235177        -0.224709         0.162002
 C        -0.861025         0.416421         0.753819
 C        -1.142873         1.902954         0.649323
 C        -2.312580         1.296224         1.610522
 C        -1.210894         0.517452         2.365443
 O        -3.515300         1.960661         1.862818
 C        -4.452171         1.336235         1.109605
 C        -3.674475         0.652798        -0.114183
 C        -2.467392         0.084964         0.609288
 H         0.300258        -1.210500         0.360077
 H        -0.462509         2.557374         1.227419
 H        -1.361507         2.433147        -0.340983
 H        -0.590114         0.997182         3.229008
 H        -1.556784        -0.495320         2.780123
 H        -5.177565         0.668870         1.676105
 H        -5.190080         2.124049         0.685912
 H        -4.330208        -0.166353        -0.413886
 H        -3.423928         1.459842        -0.814171
 H        -2.921973        -0.819049         1.031170
