19
Iteration:  4154
 O         0.044771        -0.158398         0.060119
 C        -0.916386         0.443595         0.807937
 C        -1.221225         1.843094         0.666960
 C        -2.228469         1.338616         1.730407
 C        -1.140890         0.600118         2.410404
 O        -3.491987         1.980821         1.905608
 C        -4.423445         1.356704         0.901766
 C        -3.609467         0.467341        -0.081729
 C        -2.404895         0.053440         0.756304
 H        -0.180532        -1.054343        -0.079522
 H        -0.561212         2.731231         0.978497
 H        -1.527579         2.117758        -0.381434
 H        -0.392960         1.204823         3.001019
 H        -1.340231        -0.440511         2.916416
 H        -5.175690         0.834839         1.440694
 H        -4.797661         2.243314         0.360651
 H        -4.051298        -0.354427        -0.477639
 H        -3.602628         1.060687        -1.002047
 H        -2.537056        -0.925779         1.120798
