19
Iteration:  4324
 O         0.052470        -0.244751         0.093489
 C        -0.866095         0.488454         0.837045
 C        -1.312738         2.002875         0.621863
 C        -2.264774         1.329541         1.689007
 C        -1.032709         0.653473         2.423751
 O        -3.528789         1.625680         2.020609
 C        -4.343985         1.598157         0.814313
 C        -3.610945         0.449140        -0.157977
 C        -2.454298         0.076801         0.793896
 H        -0.460784        -1.026991        -0.284311
 H        -0.627051         2.624585         1.099124
 H        -1.552819         2.247585        -0.353769
 H        -0.281070         1.323714         2.779964
 H        -1.269493        -0.214098         2.917138
 H        -5.382832         1.297090         1.042655
 H        -4.422233         2.552002         0.326147
 H        -4.295726        -0.481517        -0.366153
 H        -3.421900         0.902889        -1.199820
 H        -2.696794        -0.704477         1.588848
