19
Iteration:   810
 O         0.199968        -0.210798         0.117845
 C        -0.919897         0.437592         0.674019
 C        -1.430265         1.891020         0.690004
 C        -2.307310         1.111282         1.723891
 C        -1.090661         0.561808         2.382210
 O        -3.550230         1.689050         2.036487
 C        -4.275661         1.729263         0.827459
 C        -3.596567         0.582820        -0.104778
 C        -2.539593        -0.042101         0.734830
 H         0.895538         0.531428         0.050539
 H        -0.730751         2.584648         1.169925
 H        -1.837151         2.502998        -0.247092
 H        -0.413540         1.224210         2.903878
 H        -1.422430        -0.283515         2.995868
 H        -5.370278         1.626673         0.962594
 H        -4.065532         2.787810         0.532011
 H        -4.350743        -0.167832        -0.524742
 H        -3.101717         1.089691        -1.019595
 H        -2.745149        -1.026500         1.211064
