19
Iteration:  1862charge 0 multiplicity 1
 O         0.027030        -0.344040         0.094878
 C        -0.846454         0.480398         0.774648
 C        -1.307648         2.003213         0.768445
 C        -2.299404         1.193334         1.723467
 C        -1.113168         0.550155         2.285220
 O        -3.546734         1.731923         2.052615
 C        -4.338119         1.617204         0.837035
 C        -3.597176         0.623318        -0.140375
 C        -2.426928         0.065740         0.727126
 H         0.911949         0.114749        -0.172528
 H        -0.512181         2.842039         1.101751
 H        -1.809715         2.384901        -0.124687
 H        -0.576411         1.153383         2.929286
 H        -1.385515        -0.484032         2.797372
 H        -5.151681         0.924403         1.106154
 H        -4.393506         2.532208         0.263331
 H        -4.249875        -0.293174        -0.279127
 H        -3.384200         0.978438        -1.227220
 H        -2.654304        -0.967043         1.177502
