19
Iteration:  1067charge 0 multiplicity 1
 O         0.084732        -0.285469         0.172236
 C        -0.896149         0.392912         0.824001
 C        -1.226791         1.969870         0.770930
 C        -2.291967         1.290821         1.642922
 C        -1.024621         0.490429         2.312096
 O        -3.589240         1.769177         1.954648
 C        -4.422278         1.490873         0.885532
 C        -3.670570         0.607921        -0.083680
 C        -2.460446         0.095072         0.617531
 H         0.930029         0.278208         0.183323
 H        -0.592430         2.678933         1.284703
 H        -1.467987         2.461925        -0.244498
 H        -0.276252         1.046596         2.700680
 H        -1.238904        -0.515182         2.723744
 H        -5.380871         1.355068         1.326379
 H        -4.490491         2.456474         0.362118
 H        -4.235560        -0.174671        -0.533302
 H        -3.237428         1.307118        -0.912739
 H        -2.695008        -0.900476         1.082858
