19
Iteration:  2927
 O         0.253174        -0.164586         0.073715
 C        -0.982910         0.390711         0.732918
 C        -1.291388         1.953425         0.777003
 C        -2.289910         1.241508         1.651356
 C        -1.089988         0.506768         2.380256
 O        -3.605724         1.803619         2.043085
 C        -4.247325         1.646745         0.813224
 C        -3.733183         0.488781        -0.146861
 C        -2.441073         0.040916         0.781765
 H        -0.070481        -1.002645        -0.217994
 H        -0.553452         2.718144         1.151604
 H        -1.752383         2.355801        -0.179356
 H        -0.356456         1.127740         2.767798
 H        -1.134293        -0.399960         2.870978
 H        -5.261302         1.345771         1.159213
 H        -4.402697         2.684832         0.344803
 H        -4.470233        -0.336894        -0.209208
 H        -3.469501         0.779379        -1.123016
 H        -2.637709        -0.920991         1.326260
