19
Iteration:  1864charge 0 multiplicity 1
 O         0.023125        -0.336360         0.099554
 C        -0.850522         0.491035         0.783921
 C        -1.305152         1.975537         0.765238
 C        -2.280186         1.191861         1.729855
 C        -1.113785         0.535316         2.283672
 O        -3.547494         1.732010         2.051556
 C        -4.331391         1.611175         0.821174
 C        -3.596352         0.628549        -0.138934
 C        -2.425699         0.056319         0.716419
 H         0.850202         0.144521        -0.151834
 H        -0.606540         2.905708         1.111942
 H        -1.817632         2.391431        -0.140559
 H        -0.507424         1.238055         2.935503
 H        -1.363663        -0.443313         2.800704
 H        -5.227481         1.046355         1.169426
 H        -4.426801         2.551279         0.302488
 H        -4.283955        -0.295775        -0.329964
 H        -3.423370         0.976758        -1.202788
 H        -2.632271        -0.933241         1.188968
