19
Iteration:  4899charge 0 multiplicity 1
 O         0.070279        -0.269637        -0.013309
 C        -0.858681         0.401586         0.819564
 C        -1.201005         1.919544         0.664699
 C        -2.242570         1.309923         1.683732
 C        -1.035057         0.618405         2.361064
 O        -3.554786         1.861011         1.994847
 C        -4.444535         1.495038         0.899631
 C        -3.709135         0.478960        -0.091967
 C        -2.484947         0.076280         0.769982
 H         0.719009        -0.722788         0.635913
 H        -0.552483         2.701154         1.006158
 H        -1.503358         2.255372        -0.349110
 H        -0.423735         1.310726         2.912942
 H        -1.189422        -0.260418         2.926210
 H        -5.458108         1.144372         1.297643
 H        -4.661188         2.537710         0.369144
 H        -4.227479        -0.363409        -0.443606
 H        -3.266777         1.053625        -0.933088
 H        -2.640166        -0.916644         1.221253
