19
Iteration:  2298charge 0 multiplicity 1
 O         0.206534        -0.206890         0.157947
 C        -0.922976         0.384532         0.749543
 C        -1.269338         1.932090         0.626562
 C        -2.300671         1.271743         1.649661
 C        -1.158962         0.503477         2.375471
 O        -3.535623         1.705104         2.136107
 C        -4.298070         1.593372         0.818928
 C        -3.592847         0.623637        -0.157228
 C        -2.559392         0.060101         0.742275
 H        -0.097095        -0.384561        -0.725154
 H        -0.611284         2.622488         1.125813
 H        -1.575711         2.195649        -0.379177
 H        -0.601964         1.035716         3.002321
 H        -1.388758        -0.412029         2.913865
 H        -5.264207         1.337081         1.185063
 H        -4.332582         2.599201         0.469995
 H        -4.300918        -0.120406        -0.687752
 H        -3.188890         1.432883        -0.762196
 H        -2.803954        -0.912340         1.132581
