19
Iteration:  4895charge 0 multiplicity 1
 O         0.078391        -0.265582        -0.012898
 C        -0.862185         0.432875         0.820213
 C        -1.213935         1.863903         0.673819
 C        -2.248186         1.334297         1.680620
 C        -1.037416         0.638139         2.353441
 O        -3.560580         1.831052         1.988388
 C        -4.452699         1.487455         0.869835
 C        -3.706732         0.539412        -0.091475
 C        -2.490219         0.063307         0.829428
 H         0.644713        -0.821745         0.481160
 H        -0.456440         2.683408         0.938086
 H        -1.537458         2.160511        -0.325083
 H        -0.257780         1.339347         2.838397
 H        -1.247549        -0.324251         2.949968
 H        -5.362603         1.180415         1.288960
 H        -4.589307         2.400690         0.417726
 H        -4.156637        -0.427498        -0.412520
 H        -3.304666         1.185931        -0.969076
 H        -2.550429        -0.936742         1.184155
