19
Iteration:  3461charge 0 multiplicity 1
 O         0.153033        -0.084185         0.233682
 C        -0.940865         0.458301         0.763609
 C        -1.368178         1.830021         0.702394
 C        -2.336979         1.175807         1.722350
 C        -1.023824         0.507447         2.323205
 O        -3.558369         1.758987         2.044347
 C        -4.190836         1.800318         0.767277
 C        -3.721141         0.467858        -0.098870
 C        -2.438725        -0.049936         0.691113
 H         0.014352        -0.398189        -0.744112
 H        -0.699678         2.556956         1.108582
 H        -1.791486         2.057707        -0.248904
 H        -0.304466         1.156028         2.730909
 H        -1.211497        -0.405445         2.885126
 H        -5.268190         1.812354         0.931553
 H        -3.797405         2.559093         0.128939
 H        -4.552129        -0.326080        -0.119211
 H        -3.676786         0.774862        -1.128859
 H        -2.641451        -1.062045         1.200858
