19
Iteration:  4607charge 0 multiplicity 1
 O         0.083133        -0.333703         0.310588
 C        -0.986161         0.425193         0.677615
 C        -1.121467         2.013407         0.649542
 C        -2.200330         1.381980         1.649349
 C        -1.071394         0.599469         2.267162
 O        -3.547791         1.856506         1.993027
 C        -4.420567         1.306870         0.982637
 C        -3.675061         0.600440        -0.129770
 C        -2.434825         0.127752         0.681592
 H        -0.053384        -0.819901        -0.590374
 H        -0.242376         2.558646         1.017528
 H        -1.508815         2.481318        -0.302057
 H        -0.225416         1.219656         2.744747
 H        -1.321445        -0.291003         2.884153
 H        -5.240175         0.640923         1.384170
 H        -4.996739         2.064731         0.401823
 H        -4.222145        -0.373611        -0.428411
 H        -3.721551         1.210152        -0.919358
 H        -2.774671        -0.714217         1.254144
