19
Iteration:  3581
 O         0.064710        -0.272415         0.144574
 C        -0.947053         0.394044         0.795659
 C        -1.125650         1.969954         0.636408
 C        -2.278291         1.334746         1.667660
 C        -1.148070         0.539383         2.393294
 O        -3.436224         1.934269         1.954486
 C        -4.412431         1.170458         0.984330
 C        -3.627928         0.702654        -0.248607
 C        -2.536513         0.172883         0.656749
 H         0.631025        -0.836453         0.649114
 H        -0.342467         2.544679         1.169168
 H        -1.510600         2.304921        -0.291772
 H        -0.440185         1.096252         2.902710
 H        -1.439782        -0.289894         3.009046
 H        -4.924231         0.450903         1.585371
 H        -5.180884         1.853150         0.787628
 H        -4.183991        -0.203315        -0.705794
 H        -3.341259         1.561756        -0.849984
 H        -3.073217        -0.674993         1.158480
