19
Iteration:  3244charge 0 multiplicity 1
 O        -0.016852        -0.185120         0.027428
 C        -0.930580         0.456222         0.822199
 C        -1.277382         1.966807         0.736725
 C        -2.279306         1.283389         1.728273
 C        -1.067631         0.483805         2.405923
 O        -3.562071         1.791028         2.053534
 C        -4.339460         1.569266         0.775764
 C        -3.583960         0.510579        -0.202068
 C        -2.341688         0.092058         0.762345
 H         0.100358        -1.065129         0.288041
 H        -0.590267         2.750162         1.033320
 H        -1.672190         2.171346        -0.257942
 H        -0.236649         0.894640         2.994819
 H        -1.382228        -0.494971         2.974634
 H        -5.404454         1.111562         1.087903
 H        -4.366745         2.535000         0.337717
 H        -4.187417        -0.305282        -0.615857
 H        -3.311979         1.036086        -1.086030
 H        -2.511421        -0.867854         1.232676
