19
Iteration:  4405charge 0 multiplicity 1
 O         0.232126        -0.118482         0.055143
 C        -0.862204         0.469795         0.677253
 C        -1.229466         1.901317         0.632644
 C        -2.262554         1.253536         1.659894
 C        -1.174345         0.561130         2.412939
 O        -3.567236         1.771406         2.045969
 C        -4.361994         1.683899         0.773593
 C        -3.742756         0.378166        -0.007791
 C        -2.510650         0.044392         0.820659
 H         0.313509        -1.133131         0.182138
 H        -0.385714         2.662908         0.846910
 H        -1.719993         2.396975        -0.282552
 H        -0.485535         1.050068         3.108881
 H        -1.285598        -0.461405         2.932835
 H        -5.397757         1.423078         0.985432
 H        -4.180272         2.690945         0.183431
 H        -4.411803        -0.381173         0.176997
 H        -3.442654         0.547021        -1.101725
 H        -2.576935        -0.943209         1.351683
