19
Iteration:  3484
 O         0.305141        -0.205810         0.131251
 C        -0.898641         0.383893         0.760970
 C        -1.341916         1.897979         0.701562
 C        -2.296637         1.196825         1.715281
 C        -1.066654         0.505423         2.351519
 O        -3.561753         1.769484         2.021967
 C        -4.312394         1.736156         0.749257
 C        -3.673321         0.541031        -0.101812
 C        -2.619632         0.007431         0.823478
 H         0.297648         0.307542        -0.685430
 H        -0.659505         2.597306         1.135081
 H        -1.909258         2.197354        -0.110074
 H        -0.309426         1.216002         2.716966
 H        -1.237841        -0.375517         2.999284
 H        -5.348431         1.471391         1.038181
 H        -4.273091         2.639946         0.127820
 H        -4.453731        -0.255201        -0.197149
 H        -3.335325         0.755339        -1.153605
 H        -2.812576        -1.005398         1.315697
