19
Iteration:    46
 O        -0.020011        -0.402567         0.054644
 C        -0.918120         0.451538         0.846019
 C        -1.104863         2.051620         0.879532
 C        -2.289260         1.345470         1.687485
 C        -1.285407         0.385313         2.391089
 O        -3.544611         1.817084         1.964460
 C        -4.386106         1.176886         0.941674
 C        -3.499353         0.870015        -0.276526
 C        -2.411469         0.274628         0.568511
 H         0.842538        -0.352929         0.518662
 H        -0.380590         2.657538         1.523879
 H        -1.285586         2.440962        -0.054076
 H        -0.445922         0.929464         2.885366
 H        -1.694821        -0.428346         2.882493
 H        -4.722577         0.205564         1.254215
 H        -5.276815         1.800981         0.714481
 H        -4.004491         0.164480        -0.945724
 H        -3.189630         1.782785        -0.866850
 H        -2.743491        -0.700823         0.955962
