19
Iteration:  1612charge 0 multiplicity 1
 O         0.078921        -0.220075         0.124848
 C        -0.963441         0.398798         0.736512
 C        -1.370605         1.890862         0.657924
 C        -2.336548         1.178121         1.746655
 C        -1.051005         0.598686         2.338522
 O        -3.577586         1.680977         2.132412
 C        -4.246815         1.703806         0.787428
 C        -3.534144         0.620999        -0.118514
 C        -2.458127        -0.046925         0.646339
 H         0.819935         0.430366         0.255739
 H        -0.719239         2.711586         1.064845
 H        -1.898349         2.208141        -0.235618
 H        -0.368969         1.221980         2.941062
 H        -1.100974        -0.516534         2.803860
 H        -5.414090         1.375779         0.890654
 H        -4.321435         2.772034         0.401290
 H        -4.361495        -0.058483        -0.315748
 H        -3.099464         1.000185        -1.110957
 H        -2.696528        -0.865924         1.287569
