19
Iteration:    52charge 0 multiplicity 1
 O        -0.027725        -0.407958         0.097309
 C        -0.920096         0.490180         0.790979
 C        -1.038976         2.117892         0.896761
 C        -2.294971         1.310552         1.697816
 C        -1.312260         0.359379         2.374652
 O        -3.528197         1.821241         1.952243
 C        -4.392097         1.183081         0.921813
 C        -3.530345         0.845773        -0.261154
 C        -2.388325         0.278915         0.535502
 H         0.763501        -0.270529         0.555745
 H        -0.387936         2.638165         1.516591
 H        -1.456026         2.429754        -0.197358
 H        -0.492979         0.763897         2.961094
 H        -1.703121        -0.558110         3.068291
 H        -4.704999         0.211272         1.486452
 H        -5.200381         1.866328         0.733689
 H        -4.100976         0.098205        -0.831793
 H        -3.315166         1.714781        -0.812251
 H        -2.650031        -0.735608         0.874789
