19
Iteration:  2250
 O         0.221822        -0.251418         0.154174
 C        -0.881335         0.504526         0.698606
 C        -1.283100         1.968958         0.815621
 C        -2.328629         1.139184         1.723157
 C        -1.116633         0.478755         2.258434
 O        -3.560751         1.735402         2.077728
 C        -4.280827         1.720636         0.719419
 C        -3.755440         0.458443        -0.143135
 C        -2.489844         0.032716         0.767646
 H         0.283474         0.289759        -0.725557
 H        -0.559376         2.628048         1.433184
 H        -1.766202         2.515272        -0.070565
 H        -0.189512         0.846486         2.845463
 H        -1.344939        -0.430079         2.864155
 H        -5.352154         1.943461         0.930188
 H        -3.918002         2.687109         0.383880
 H        -4.616277        -0.126352        -0.154242
 H        -3.439064         0.860174        -1.103826
 H        -2.707332        -0.811024         1.447735
