19
Iteration:  3296
 O         0.191957        -0.206852         0.216669
 C        -0.902635         0.391743         0.812424
 C        -1.126297         1.884864         0.615751
 C        -2.309813         1.302917         1.586626
 C        -1.141883         0.472511         2.371692
 O        -3.535458         1.901240         1.919739
 C        -4.482200         1.281017         1.112602
 C        -3.594701         0.803658        -0.175412
 C        -2.521291         0.158086         0.613729
 H         0.075794        -1.130561         0.117412
 H        -0.457980         2.516674         1.069231
 H        -1.453142         2.114488        -0.409745
 H        -0.450345         1.067862         2.987328
 H        -1.483308        -0.484694         2.818172
 H        -4.855641         0.351784         1.565213
 H        -5.034015         2.133082         0.747500
 H        -4.284689        -0.007588        -0.648049
 H        -3.356314         1.418574        -1.016193
 H        -2.916239        -0.816241         0.971577
