19
Iteration:  1294charge 0 multiplicity 1
 O         0.100700        -0.243040         0.029911
 C        -0.990872         0.355940         0.819112
 C        -1.251422         1.958665         0.782991
 C        -2.280408         1.357852         1.726818
 C        -1.121027         0.500887         2.306613
 O        -3.554050         1.895081         2.028976
 C        -4.427879         1.427391         0.881478
 C        -3.514526         0.565008        -0.179922
 C        -2.457609         0.035565         0.668704
 H         0.934636         0.029978         0.509683
 H        -0.533691         2.474557         1.344691
 H        -1.570495         2.499536        -0.143992
 H        -0.245928         0.968991         2.847392
 H        -1.414793        -0.537216         2.721678
 H        -5.202752         0.970983         1.397627
 H        -4.916290         2.335769         0.417445
 H        -4.117007        -0.102710        -0.682223
 H        -3.136998         1.196137        -0.986969
 H        -2.686851        -0.886435         1.192795
