19
Iteration:  1740charge 0 multiplicity 1
 O         0.057972        -0.361264         0.117664
 C        -0.867044         0.388503         0.747026
 C        -1.146011         1.977840         0.739265
 C        -2.248833         1.322596         1.544145
 C        -1.201985         0.563316         2.387238
 O        -3.534964         1.797243         1.965733
 C        -4.479204         1.290078         1.012092
 C        -3.584363         0.747884        -0.141590
 C        -2.429783         0.172226         0.664446
 H         0.846479         0.245383         0.044474
 H        -0.572696         2.687523         1.396865
 H        -1.390882         2.340176        -0.291311
 H        -0.448622         1.008070         3.060718
 H        -1.578539        -0.467785         2.768668
 H        -5.069608         0.480440         1.479459
 H        -5.001867         2.171762         0.625231
 H        -4.132033        -0.069495        -0.588094
 H        -3.431110         1.593836        -0.891286
 H        -2.767011        -0.722415         1.257946
