19
Iteration:  4273charge 0 multiplicity 1
 O         0.195742        -0.115840         0.091085
 C        -0.858549         0.396125         0.814413
 C        -1.233173         1.856334         0.615858
 C        -2.295995         1.286743         1.650199
 C        -1.061785         0.477170         2.354114
 O        -3.483195         1.934933         1.917891
 C        -4.446779         1.406568         0.905366
 C        -3.679486         0.565075        -0.091195
 C        -2.588518         0.090151         0.830336
 H         0.549793        -1.017947         0.385562
 H        -0.605475         2.748921         0.958870
 H        -1.753819         2.104566        -0.378542
 H        -0.410884         1.130638         2.997206
 H        -1.371461        -0.516736         2.857840
 H        -5.133290         0.746319         1.409321
 H        -4.926410         2.346909         0.416092
 H        -4.222890        -0.162757        -0.570775
 H        -3.339094         1.152283        -0.981615
 H        -2.873587        -0.766917         1.443024
