19
Iteration:  4580
 O         0.089761        -0.355488         0.169838
 C        -0.823346         0.411858         0.847699
 C        -1.237458         1.976054         0.616309
 C        -2.241269         1.349872         1.568446
 C        -1.110301         0.635431         2.335851
 O        -3.531393         1.918990         2.008622
 C        -4.409620         1.294903         0.993063
 C        -3.632890         0.642085        -0.135456
 C        -2.423472         0.063653         0.723914
 H        -0.370161        -0.945531        -0.527657
 H        -0.703790         2.904478         0.848611
 H        -1.547046         2.012762        -0.408305
 H        -0.619330         1.280479         3.007768
 H        -1.326170        -0.295396         2.853277
 H        -4.981936         0.451593         1.374841
 H        -5.121971         2.027208         0.634676
 H        -4.259525         0.103343        -0.827129
 H        -3.357223         1.512905        -1.016160
 H        -2.759818        -0.752965         1.447082
