19
Iteration:  3766charge 0 multiplicity 1
 O         0.253743        -0.101728         0.287213
 C        -0.952641         0.404038         0.762855
 C        -1.205275         1.861632         0.513548
 C        -2.322096         1.236011         1.644137
 C        -1.122586         0.540852         2.271374
 O        -3.536845         1.728033         2.056366
 C        -4.281209         1.708579         0.853987
 C        -3.784527         0.450941        -0.035990
 C        -2.538670        -0.012743         0.758231
 H         0.399451         0.270344        -0.563485
 H        -0.467123         2.664833         0.818132
 H        -1.528706         1.891758        -0.578690
 H        -0.220746         1.149853         2.759781
 H        -1.298077        -0.393224         2.975351
 H        -5.362040         1.613540         1.045362
 H        -4.358847         2.608701         0.209292
 H        -4.630070        -0.284164        -0.144241
 H        -3.544443         0.837622        -0.973649
 H        -2.636538        -0.858175         1.383144
