19
Iteration:  1122
 O         0.039777        -0.211511         0.069812
 C        -0.984329         0.419777         0.752640
 C        -1.282342         1.903772         0.723379
 C        -2.358998         1.200348         1.764727
 C        -1.096020         0.556714         2.389912
 O        -3.589003         1.721136         2.038779
 C        -4.322710         1.669386         0.757538
 C        -3.530002         0.576742        -0.098274
 C        -2.389480        -0.007562         0.738369
 H         0.702806         0.455105        -0.064210
 H        -0.409639         2.490961         1.045505
 H        -1.614116         2.249075        -0.333731
 H        -0.383511         1.113906         2.902194
 H        -1.285487        -0.433871         2.966302
 H        -5.338054         1.521315         1.068357
 H        -4.204906         2.677704         0.345640
 H        -4.113806        -0.250864        -0.405079
 H        -3.052813         1.016829        -1.087574
 H        -2.620434        -1.034485         1.123671
