19
Iteration:  1191
 O         0.202677        -0.217504         0.044961
 C        -0.921333         0.413536         0.773536
 C        -1.350922         1.953804         0.677785
 C        -2.314633         1.185480         1.702685
 C        -1.196783         0.551321         2.390553
 O        -3.521769         1.698456         2.110062
 C        -4.265261         1.664627         0.818654
 C        -3.673871         0.515881        -0.174951
 C        -2.495825         0.061760         0.705030
 H         1.046722         0.087901         0.492857
 H        -0.619466         2.668943         1.117785
 H        -1.683942         2.271582        -0.309747
 H        -0.527939         1.224299         3.091058
 H        -1.316083        -0.408164         2.928763
 H        -5.374339         1.602091         1.154453
 H        -3.997081         2.624933         0.371281
 H        -4.424899        -0.302211        -0.470849
 H        -3.404888         1.077832        -1.088595
 H        -2.635443        -0.910881         1.145679
