19
Iteration:  4974charge 0 multiplicity 1
 O         0.201217        -0.290840         0.147268
 C        -0.969772         0.339805         0.754244
 C        -1.235274         1.861750         0.585312
 C        -2.296583         1.266977         1.631498
 C        -1.091055         0.674531         2.420004
 O        -3.525910         1.844861         2.050184
 C        -4.384832         1.431348         0.961397
 C        -3.643158         0.641194        -0.129410
 C        -2.513301         0.033982         0.711325
 H         0.007187        -0.089206        -0.747118
 H        -0.348359         2.452404         0.918523
 H        -1.696220         2.140205        -0.417109
 H        -0.299266         1.472215         2.684860
 H        -1.182382        -0.129510         3.175655
 H        -5.155904         0.925558         1.460854
 H        -4.812886         2.262362         0.424989
 H        -4.255854         0.082897        -0.772077
 H        -3.254305         1.545661        -0.783090
 H        -2.859203        -0.732363         1.324230
