19
Iteration:  1202
 O         0.171479        -0.200101         0.088543
 C        -0.887454         0.362181         0.813048
 C        -1.340371         1.867269         0.694162
 C        -2.313696         1.275928         1.636809
 C        -1.053149         0.518453         2.386316
 O        -3.586058         1.663686         2.072555
 C        -4.345270         1.705489         0.840155
 C        -3.654420         0.591635        -0.126251
 C        -2.457253         0.006900         0.662241
 H         0.937866         0.194609         0.454070
 H        -0.828789         2.724497         1.208640
 H        -1.856009         2.214589        -0.179870
 H        -0.151036         1.274987         2.688357
 H        -1.364946        -0.332238         3.020014
 H        -5.507559         1.702169         1.081380
 H        -4.234901         2.676311         0.322100
 H        -4.213891        -0.327878        -0.566667
 H        -3.348875         1.167668        -1.018927
 H        -2.843682        -0.861640         1.170027
