19
Iteration:  3436charge 0 multiplicity 1
 O         0.187434        -0.203457         0.121275
 C        -0.913721         0.424451         0.755284
 C        -1.390097         2.006121         0.628393
 C        -2.342025         1.254733         1.682647
 C        -1.147967         0.526463         2.379444
 O        -3.559454         1.614444         2.118895
 C        -4.188351         1.732452         0.694929
 C        -3.662444         0.525332        -0.044642
 C        -2.391139         0.067138         0.769831
 H         0.012744        -0.949514        -0.499370
 H        -0.723666         2.715827         1.209834
 H        -1.712705         2.424795        -0.427619
 H        -0.537898         1.087043         3.066098
 H        -1.461973        -0.403126         2.782017
 H        -5.240217         1.548143         0.851947
 H        -3.672119         2.573918         0.226689
 H        -4.550791        -0.195470        -0.104665
 H        -3.627159         0.705342        -1.126973
 H        -2.762698        -0.727480         1.429758
