19
Iteration:  1834charge 0 multiplicity 1
 O        -0.015435        -0.271912         0.068705
 C        -0.916643         0.422118         0.764631
 C        -1.151609         1.950126         0.747905
 C        -2.233964         1.322105         1.734291
 C        -1.124468         0.537011         2.323376
 O        -3.539029         1.728359         2.049213
 C        -4.422915         1.494329         0.863191
 C        -3.616458         0.613265        -0.187010
 C        -2.437285         0.083610         0.720446
 H         0.914486         0.082447         0.283628
 H        -0.533576         2.673142         1.216557
 H        -1.722322         2.200598        -0.176859
 H        -0.261717         1.157206         2.856096
 H        -1.454054        -0.224518         2.934559
 H        -5.312308         0.958296         1.146576
 H        -4.459462         2.338230         0.175503
 H        -4.115126        -0.257269        -0.622376
 H        -3.294177         1.292804        -0.907538
 H        -2.719945        -0.803122         1.239272
