19
Iteration:  3813charge 0 multiplicity 1
 O         0.006390        -0.344898         0.243634
 C        -0.883310         0.497787         0.774424
 C        -1.358758         1.931576         0.623447
 C        -2.278265         1.273188         1.688904
 C        -1.031368         0.668471         2.311261
 O        -3.534529         1.795446         2.054669
 C        -4.366558         1.457819         0.864173
 C        -3.564123         0.548736        -0.134507
 C        -2.386340         0.083525         0.718534
 H        -0.126788        -0.310236        -0.765805
 H        -0.692608         2.683179         1.082397
 H        -1.747857         2.264184        -0.371628
 H        -0.310238         1.373521         2.815265
 H        -1.093311        -0.269617         2.863281
 H        -5.360137         1.121745         1.087421
 H        -4.641803         2.409255         0.347373
 H        -4.073919        -0.340316        -0.404367
 H        -3.208520         1.067982        -1.083734
 H        -2.533430        -0.947472         1.148884
