19
Iteration:   768
 O         0.065942        -0.351131         0.101241
 C        -0.889422         0.487651         0.723049
 C        -1.178503         2.033380         0.744990
 C        -2.302725         1.304195         1.719736
 C        -1.215140         0.493915         2.397594
 O        -3.552099         1.708058         2.084737
 C        -4.374015         1.473408         0.867620
 C        -3.584922         0.568330        -0.237029
 C        -2.422002         0.189102         0.718311
 H         0.771822         0.067225        -0.367112
 H        -0.479347         2.718858         1.258673
 H        -1.620095         2.477097        -0.223877
 H        -0.447424         1.093819         2.973643
 H        -1.453459        -0.495843         2.707024
 H        -5.313564         1.222121         1.371320
 H        -4.627234         2.425325         0.334972
 H        -4.202796        -0.383366        -0.540625
 H        -3.332489         1.261916        -1.089319
 H        -2.582552        -0.907936         1.028322
