19
Iteration:  3116
 O        -0.012685        -0.282588         0.057215
 C        -0.912077         0.439745         0.776003
 C        -1.218679         1.941970         0.663537
 C        -2.260537         1.326214         1.669632
 C        -1.133100         0.569289         2.428465
 O        -3.542633         1.787129         1.994409
 C        -4.395582         1.390289         0.981067
 C        -3.534123         0.614122        -0.204048
 C        -2.389687         0.170218         0.699555
 H         0.278242        -1.075240         0.629474
 H        -0.565931         2.669802         1.257676
 H        -1.547867         2.305235        -0.330941
 H        -0.488936         1.204669         2.929322
 H        -1.406310        -0.330761         2.977118
 H        -5.319294         0.944336         1.262058
 H        -4.816129         2.274315         0.315097
 H        -4.004206        -0.259674        -0.681339
 H        -3.120205         1.374560        -0.964118
 H        -2.663686        -0.801771         1.238771
