19
Iteration:  2922
 O         0.223373        -0.125273         0.111070
 C        -0.975872         0.416823         0.734196
 C        -1.311293         1.920795         0.775328
 C        -2.261294         1.194504         1.661702
 C        -1.088766         0.514952         2.371175
 O        -3.555041         1.810044         2.058534
 C        -4.303364         1.681289         0.780024
 C        -3.724032         0.464508        -0.134365
 C        -2.472289         0.025443         0.741118
 H         0.004421        -1.042093        -0.290677
 H        -0.552379         2.649179         1.025729
 H        -1.768996         2.392083        -0.071313
 H        -0.231524         1.197694         2.797469
 H        -1.182204        -0.521903         2.899908
 H        -5.218121         1.320756         1.252812
 H        -4.193744         2.615609         0.221190
 H        -4.484901        -0.311096        -0.213092
 H        -3.451342         0.784669        -1.199334
 H        -2.632727        -0.857498         1.350936
