19
Iteration:  4961
 O         0.215777        -0.315251         0.131773
 C        -0.867559         0.339467         0.803403
 C        -1.228694         1.808097         0.591329
 C        -2.295110         1.279770         1.673905
 C        -1.069211         0.665415         2.294974
 O        -3.508681         1.824307         2.017650
 C        -4.491834         1.494782         0.925139
 C        -3.665044         0.664058        -0.115086
 C        -2.549065         0.091400         0.805828
 H         0.456799         0.220705        -0.710884
 H        -0.579123         2.603140         1.094083
 H        -1.556219         2.165316        -0.423087
 H        -0.440782         1.427477         2.899525
 H        -1.357983        -0.230280         2.925219
 H        -5.148814         0.792080         1.289863
 H        -4.964666         2.361262         0.673567
 H        -4.344609        -0.133454        -0.430118
 H        -3.215566         1.194521        -1.061642
 H        -2.823055        -0.869818         1.237885
