19
Iteration:  2935
 O         0.228212        -0.214267         0.033753
 C        -0.873464         0.396905         0.761005
 C        -1.269946         1.987661         0.708139
 C        -2.342534         1.321265         1.748675
 C        -1.098446         0.511974         2.343292
 O        -3.601702         1.759577         2.029953
 C        -4.302073         1.599146         0.815634
 C        -3.680640         0.524504        -0.097253
 C        -2.467255         0.054992         0.772165
 H        -0.064995        -1.065010        -0.191229
 H        -0.636545         2.576615         1.409632
 H        -1.598147         2.288287        -0.284034
 H        -0.316859         1.210391         2.905390
 H        -1.317189        -0.385663         2.930005
 H        -5.333864         1.373569         0.907184
 H        -4.505098         2.616266         0.374193
 H        -4.335144        -0.285315        -0.182895
 H        -3.456698         0.919655        -1.117942
 H        -2.705133        -0.930306         1.244811
