19
Iteration:   284
 O         0.059019        -0.240855         0.115341
 C        -0.820168         0.506143         0.831139
 C        -1.164162         1.984048         0.808781
 C        -2.350955         1.170173         1.722663
 C        -1.127487         0.484685         2.368143
 O        -3.581492         1.646847         2.054168
 C        -4.385256         1.513286         0.793685
 C        -3.601294         0.730271        -0.236369
 C        -2.410604         0.165211         0.606605
 H        -0.233177        -1.124425         0.031352
 H        -0.604324         2.773934         1.455848
 H        -1.403786         2.330782        -0.157912
 H        -0.437535         1.050417         3.036927
 H        -1.294168        -0.433823         2.852316
 H        -5.354372         1.122853         1.122337
 H        -4.495525         2.528297         0.561472
 H        -4.211408        -0.044101        -0.527422
 H        -3.360182         1.313073        -1.077649
 H        -2.588865        -0.862318         0.889343
