19
Iteration:  4198
 O         0.077615        -0.288072         0.214517
 C        -0.945826         0.442291         0.788828
 C        -1.146952         1.897703         0.622647
 C        -2.313705         1.353043         1.597210
 C        -1.065205         0.646937         2.297048
 O        -3.542503         1.896649         1.985286
 C        -4.500570         1.205794         1.036889
 C        -3.597713         0.628636        -0.165187
 C        -2.420671         0.174633         0.677944
 H        -0.153594        -1.183642         0.077704
 H        -0.249873         2.513327         1.021457
 H        -1.359837         2.336952        -0.420505
 H        -0.206039         1.274397         2.649189
 H        -1.183257        -0.171447         3.125761
 H        -5.016743         0.481624         1.635258
 H        -5.068530         1.986539         0.523828
 H        -4.080549        -0.091276        -0.771893
 H        -3.348544         1.408587        -0.905066
 H        -2.672831        -0.675922         1.237960
