19
Iteration:  3299
 O         0.201574        -0.225815         0.227243
 C        -0.895367         0.404726         0.807666
 C        -1.129949         1.903540         0.611162
 C        -2.322861         1.291163         1.577402
 C        -1.167382         0.453324         2.352264
 O        -3.533752         1.920109         1.919411
 C        -4.460942         1.278792         1.117804
 C        -3.613956         0.804935        -0.179222
 C        -2.496359         0.169095         0.618275
 H         0.163116        -1.195979         0.128063
 H        -0.399741         2.574712         1.034197
 H        -1.490515         2.056346        -0.372336
 H        -0.561185         1.112992         2.979507
 H        -1.515507        -0.593573         2.746660
 H        -4.896271         0.264472         1.486284
 H        -5.113912         2.098300         0.845236
 H        -4.237052        -0.010419        -0.527721
 H        -3.477363         1.497122        -0.984252
 H        -2.771903        -0.767543         1.086188
