19
Iteration:  4750charge 0 multiplicity 1
 O         0.028264        -0.263103         0.043789
 C        -0.985584         0.386597         0.709806
 C        -1.335190         1.915121         0.598806
 C        -2.295033         1.312246         1.736447
 C        -0.981706         0.645437         2.368008
 O        -3.616959         1.763795         2.054732
 C        -4.286409         1.652679         0.772007
 C        -3.575179         0.460471        -0.055679
 C        -2.448951         0.001002         0.859219
 H         0.915598        -0.020557         0.447337
 H        -0.499004         2.508621         1.039954
 H        -1.743284         2.359426        -0.375082
 H        -0.259089         1.475231         2.610645
 H        -1.025369        -0.373867         2.868761
 H        -5.264432         1.274766         1.077714
 H        -4.414919         2.559012         0.273355
 H        -4.211833        -0.522515        -0.347425
 H        -3.131392         0.905397        -0.882373
 H        -2.724984        -0.865991         1.480823
