19
Iteration:  3411charge 0 multiplicity 1
 O         0.074989        -0.199891         0.095834
 C        -0.941908         0.443481         0.830930
 C        -1.185311         1.972690         0.663422
 C        -2.367606         1.172233         1.767096
 C        -1.024040         0.571072         2.423942
 O        -3.587521         1.707561         2.024114
 C        -4.370278         1.673383         0.824841
 C        -3.611696         0.485614        -0.178184
 C        -2.443305         0.096239         0.699720
 H        -0.094347        -1.107891        -0.076065
 H        -0.383289         2.650045         1.079815
 H        -1.662965         2.361532        -0.262897
 H        -0.309544         1.387667         2.811283
 H        -0.965512        -0.370636         3.036621
 H        -5.350749         1.255819         1.083098
 H        -4.186071         2.639949         0.325358
 H        -4.336110        -0.163720        -0.561597
 H        -3.215597         0.934097        -1.154210
 H        -2.633412        -0.888568         1.057961
