19
Iteration:  3079charge 0 multiplicity 1
 O         0.124691        -0.225624         0.154585
 C        -0.918964         0.387846         0.806293
 C        -1.160596         1.874522         0.677766
 C        -2.254852         1.321621         1.644171
 C        -1.055136         0.491648         2.392702
 O        -3.547348         1.940288         1.893944
 C        -4.467972         1.241749         1.016607
 C        -3.588608         0.725593        -0.244103
 C        -2.517026         0.177689         0.710523
 H        -0.098702        -1.203765         0.079442
 H        -0.504162         2.571261         1.175897
 H        -1.543253         2.268972        -0.318509
 H        -0.267727         1.180617         2.873109
 H        -1.294180        -0.407374         3.010717
 H        -5.043593         0.390163         1.672810
 H        -5.142213         2.091465         0.863338
 H        -4.076624         0.002123        -0.904848
 H        -3.448956         1.597144        -0.795216
 H        -2.918275        -0.765756         1.147654
