19
Iteration:  3324charge 0 multiplicity 1
 O         0.234179        -0.301121         0.257261
 C        -0.907037         0.438778         0.701798
 C        -1.145765         1.987795         0.726842
 C        -2.242137         1.399571         1.568501
 C        -1.195615         0.450710         2.363163
 O        -3.425895         1.964916         1.940608
 C        -4.511170         1.199206         1.104306
 C        -3.715767         0.679046        -0.212718
 C        -2.547923         0.155638         0.502115
 H         0.216638        -1.150720         0.639047
 H        -0.393782         2.574400         1.444965
 H        -1.527948         2.439055        -0.224219
 H        -0.327154         0.857553         2.947189
 H        -1.801994        -0.383347         2.704021
 H        -4.955972         0.322510         1.745142
 H        -5.139679         2.074795         0.775660
 H        -4.357270        -0.013017        -0.718969
 H        -3.467981         1.590091        -0.894683
 H        -2.646595        -0.852365         0.994187
