19
Iteration:  1142charge 0 multiplicity 1
 O         0.108992        -0.272714         0.001270
 C        -0.853639         0.470756         0.775643
 C        -1.254261         1.969250         0.811536
 C        -2.331495         1.194758         1.730939
 C        -1.022362         0.503310         2.388592
 O        -3.633793         1.743991         2.092415
 C        -4.236482         1.630651         0.662280
 C        -3.696193         0.492231        -0.190660
 C        -2.529140         0.089615         0.818085
 H         0.960708         0.134318        -0.024854
 H        -0.744989         2.757691         1.431366
 H        -1.758035         2.527814        -0.097394
 H        -0.379950         1.229660         2.836770
 H        -1.190108        -0.494191         2.926523
 H        -5.257197         1.409122         0.899779
 H        -4.233240         2.687489         0.281576
 H        -4.420199        -0.297349        -0.301904
 H        -3.394795         0.917183        -1.230372
 H        -2.770200        -0.831449         1.456024
