19
Iteration:   368
 O         0.195321        -0.293642         0.189735
 C        -0.872019         0.429262         0.748724
 C        -1.082351         1.987635         0.830755
 C        -2.322592         1.320214         1.627545
 C        -1.237795         0.357268         2.259045
 O        -3.530963         1.874772         2.029292
 C        -4.507747         1.393131         0.954544
 C        -3.663608         0.653666        -0.180416
 C        -2.436584         0.164908         0.543187
 H         1.107706         0.176427         0.319629
 H        -0.300131         2.457263         1.380914
 H        -1.372116         2.585593        -0.032465
 H        -0.621945         0.914416         2.982420
 H        -1.595119        -0.641688         2.457232
 H        -5.162791         0.642108         1.465161
 H        -5.120507         2.253374         0.653508
 H        -4.396071        -0.175266        -0.528722
 H        -3.448978         1.303080        -1.044321
 H        -2.907854        -0.688662         1.073080
