19
Iteration:  4079
 O         0.152364        -0.201513         0.184235
 C        -0.925713         0.413584         0.743851
 C        -1.476386         1.904793         0.530126
 C        -2.323606         1.227688         1.603131
 C        -1.084449         0.753524         2.315209
 O        -3.481581         1.624642         2.098606
 C        -4.231402         1.673062         0.828245
 C        -3.663048         0.502046        -0.059977
 C        -2.454449         0.007542         0.745110
 H         0.607313        -0.781137         0.890856
 H        -0.717240         2.607788         0.761345
 H        -2.055573         1.975138        -0.374388
 H        -0.330916         1.359949         2.730564
 H        -1.298288        -0.051271         3.021414
 H        -5.272163         1.583289         1.123074
 H        -3.941465         2.647980         0.459838
 H        -4.511577        -0.233969        -0.344962
 H        -3.346922         1.060590        -0.978395
 H        -2.619698        -0.932759         1.349871
