19
Iteration:  4706
 O        -0.018399        -0.404218         0.055814
 C        -0.869853         0.473664         0.740965
 C        -1.259208         1.945089         0.627860
 C        -2.296896         1.290339         1.709667
 C        -1.010837         0.652765         2.441005
 O        -3.581928         1.807144         2.052470
 C        -4.460560         1.568603         0.867142
 C        -3.575859         0.499093        -0.120936
 C        -2.326684         0.089417         0.709302
 H         0.830325         0.102207         0.155851
 H        -0.557834         2.734533         0.928867
 H        -1.907776         2.210267        -0.280309
 H        -0.308289         1.356216         3.003864
 H        -1.351620        -0.274566         2.970744
 H        -5.466186         1.142387         0.980345
 H        -4.488217         2.456916         0.301812
 H        -4.284432        -0.405041         0.067815
 H        -3.428956         0.678624        -1.095516
 H        -2.499860        -0.882946         1.167439
