19
Iteration:  2761
 O         0.220944        -0.324019         0.207774
 C        -0.932442         0.402502         0.760051
 C        -1.239999         1.917523         0.733633
 C        -2.292730         1.296724         1.644432
 C        -1.184495         0.463184         2.298982
 O        -3.494939         1.938259         1.976528
 C        -4.446673         1.338330         1.010501
 C        -3.622752         0.708944        -0.189338
 C        -2.466436         0.145413         0.650355
 H         0.274805        -0.222464        -0.799502
 H        -0.647473         2.856391         1.272182
 H        -1.667521         2.387398        -0.211012
 H        -0.332323         0.796999         2.971054
 H        -1.617226        -0.357281         2.756774
 H        -4.847912         0.457898         1.493003
 H        -5.132497         2.275898         0.743426
 H        -4.023064        -0.108500        -0.718729
 H        -3.221507         1.473830        -0.885827
 H        -2.832902        -0.860313         1.163969
