19
Iteration:  1511charge 0 multiplicity 1
 O         0.114471        -0.212589         0.031520
 C        -0.952996         0.379158         0.754346
 C        -1.282306         1.860566         0.704446
 C        -2.286755         1.245901         1.703425
 C        -1.155206         0.548097         2.411631
 O        -3.604999         1.684616         2.068263
 C        -4.302506         1.644408         0.852490
 C        -3.555228         0.617389        -0.089025
 C        -2.437825         0.095641         0.675334
 H         0.879775         0.066550         0.519964
 H        -0.532425         2.595020         0.911309
 H        -1.787194         2.285637        -0.247561
 H        -0.476005         1.292916         2.778557
 H        -1.372329        -0.368902         2.941178
 H        -5.284504         1.133267         1.055062
 H        -4.429983         2.595444         0.332326
 H        -4.131817        -0.266278        -0.449747
 H        -3.337214         1.080248        -1.126305
 H        -2.673463        -0.869176         1.172512
