19
Iteration:  4590charge 0 multiplicity 1
 O         0.108701        -0.391945         0.219080
 C        -0.877496         0.471887         0.768721
 C        -1.220205         1.959481         0.544901
 C        -2.301159         1.370050         1.634657
 C        -1.111682         0.598242         2.379400
 O        -3.489856         1.861175         1.981036
 C        -4.487323         1.307667         1.020725
 C        -3.611955         0.614711        -0.171076
 C        -2.399078         0.216272         0.712689
 H        -0.392721        -0.900916        -0.495871
 H        -0.547057         2.750761         0.904982
 H        -1.683217         2.238311        -0.403809
 H        -0.383480         1.118778         2.970540
 H        -1.423073        -0.365758         2.787004
 H        -5.097506         0.517999         1.495630
 H        -5.158877         2.154462         0.752852
 H        -4.082226        -0.272925        -0.509972
 H        -3.061765         1.382794        -0.941587
 H        -2.621456        -0.787840         1.196187
