19
Iteration:  1441
 O         0.068264        -0.253626         0.042449
 C        -0.851000         0.400009         0.845256
 C        -1.196089         1.974124         0.740776
 C        -2.293127         1.280218         1.647039
 C        -1.144723         0.444096         2.372207
 O        -3.524023         1.816975         2.047705
 C        -4.422159         1.477476         0.827704
 C        -3.608045         0.568881        -0.204700
 C        -2.482585         0.147608         0.738269
 H         0.942077         0.059413         0.023525
 H        -0.494241         2.817665         1.162934
 H        -1.492012         2.415229        -0.201032
 H        -0.574604         1.158222         3.019207
 H        -1.483038        -0.452740         2.960889
 H        -5.146613         0.832170         1.299116
 H        -4.823899         2.435512         0.603467
 H        -4.404494        -0.173576        -0.508755
 H        -3.269408         1.007969        -1.139533
 H        -2.654052        -0.828029         1.369607
