19
Iteration:  3791charge 0 multiplicity 1
 O         0.280973        -0.361664         0.240869
 C        -0.915982         0.399974         0.726082
 C        -1.429603         2.024116         0.600094
 C        -2.282859         1.243681         1.686504
 C        -1.054761         0.629919         2.332767
 O        -3.535228         1.762645         2.067306
 C        -4.339368         1.631300         0.861783
 C        -3.711043         0.507960        -0.130737
 C        -2.484399         0.024068         0.728352
 H         0.461659        -0.019432        -0.610677
 H        -0.720579         2.781954         0.965232
 H        -1.927041         2.326249        -0.365235
 H        -0.324260         1.337748         2.775790
 H        -1.094095        -0.207368         2.992764
 H        -5.363094         1.360983         1.074220
 H        -4.529711         2.584866         0.314222
 H        -4.419077        -0.282327        -0.206431
 H        -3.402947         0.899336        -1.161005
 H        -2.654721        -0.941979         1.276716
