19
Iteration:  1284charge 0 multiplicity 1
 O         0.058015        -0.254183         0.026738
 C        -0.951390         0.420440         0.721645
 C        -1.165006         1.935030         0.790929
 C        -2.298411         1.372674         1.750084
 C        -1.067856         0.465085         2.403711
 O        -3.589401         1.882034         2.068731
 C        -4.475960         1.448052         0.863351
 C        -3.603118         0.510038        -0.256646
 C        -2.430021         0.075563         0.709282
 H         0.907560         0.081292         0.318770
 H        -0.341209         2.435993         1.232791
 H        -1.436019         2.428472        -0.201361
 H        -0.376922         1.089016         2.918764
 H        -1.276697        -0.438624         3.090875
 H        -5.248661         0.930806         1.224653
 H        -4.689446         2.353575         0.278854
 H        -3.983957        -0.236905        -0.803009
 H        -3.187173         1.320690        -0.862256
 H        -2.638372        -0.935490         1.118662
