19
Iteration:   566charge 0 multiplicity 1
 O         0.053750        -0.194629         0.114322
 C        -1.011343         0.462317         0.746547
 C        -1.263946         1.977116         0.789199
 C        -2.329580         1.240295         1.779139
 C        -1.067892         0.457072         2.338670
 O        -3.585901         1.698094         2.094661
 C        -4.265622         1.649238         0.771371
 C        -3.565753         0.417663        -0.236055
 C        -2.455805         0.127546         0.724082
 H         0.602020         0.400811        -0.329248
 H        -0.518538         2.552766         1.362272
 H        -1.554859         2.351212        -0.118906
 H        -0.251984         1.012705         2.778698
 H        -1.171757        -0.503741         2.768068
 H        -5.342467         1.721675         0.969865
 H        -3.983228         2.570685         0.285030
 H        -4.249245        -0.445581        -0.318548
 H        -3.484748         0.942467        -1.196350
 H        -2.683141        -0.843365         1.141000
