19
Iteration:   402charge 0 multiplicity 1
 O         0.134436        -0.254602         0.146790
 C        -0.900554         0.370057         0.809303
 C        -1.244876         1.949983         0.754793
 C        -2.240033         1.257784         1.673002
 C        -1.175976         0.499212         2.376990
 O        -3.497667         1.795786         2.044556
 C        -4.473034         1.320595         0.903470
 C        -3.591031         0.826626        -0.248982
 C        -2.473171         0.158873         0.555267
 H         0.751548        -0.872809         0.693348
 H        -0.379552         2.542921         1.053902
 H        -1.677930         2.271682        -0.099645
 H        -0.497949         1.129699         2.995510
 H        -1.244062        -0.419992         2.829525
 H        -5.188697         0.532730         1.182973
 H        -4.980332         2.186624         0.627673
 H        -4.252249         0.184404        -0.872626
 H        -3.343024         1.675428        -0.875639
 H        -2.853837        -0.688037         1.148677
