19
Iteration:  1607charge 0 multiplicity 1
 O         0.074760        -0.190901         0.114839
 C        -0.969930         0.347637         0.746386
 C        -1.403817         1.883923         0.666687
 C        -2.290877         1.203196         1.726052
 C        -1.038574         0.583592         2.406670
 O        -3.549633         1.657297         2.150281
 C        -4.249576         1.714175         0.760693
 C        -3.545728         0.611818        -0.147121
 C        -2.459827        -0.016345         0.653693
 H         0.823525         0.453856         0.155488
 H        -0.721654         2.629017         1.045441
 H        -1.980937         2.319509        -0.225233
 H        -0.397066         1.348994         2.875094
 H        -1.324071        -0.302293         2.826424
 H        -5.164447         1.324037         0.878907
 H        -4.184731         2.692844         0.351665
 H        -4.363881        -0.115196        -0.297144
 H        -3.271854         0.959638        -1.140279
 H        -2.981199        -0.923650         1.170787
