19
Iteration:  1041charge 0 multiplicity 1
 O         0.069259        -0.292046         0.057020
 C        -0.911071         0.443975         0.721012
 C        -1.198181         1.913204         0.709709
 C        -2.250753         1.292443         1.742901
 C        -1.241401         0.508440         2.409850
 O        -3.528409         1.866807         2.056038
 C        -4.369808         1.403217         0.887512
 C        -3.577893         0.613814        -0.246124
 C        -2.451461         0.160437         0.680009
 H         0.987005        -0.071631         0.379319
 H        -0.432991         2.664388         1.199063
 H        -1.690555         2.451216        -0.076603
 H        -0.437894         1.110564         3.075539
 H        -1.478793        -0.448536         2.828191
 H        -5.068138         0.685677         1.416806
 H        -4.991311         2.294371         0.641381
 H        -4.287008        -0.287847        -0.486323
 H        -3.212978         1.015560        -1.170098
 H        -2.699932        -0.836879         1.153596
