19
Iteration:  4049
 O         0.147850        -0.151690         0.115991
 C        -0.896354         0.474020         0.767612
 C        -1.281337         1.880846         0.571400
 C        -2.384183         1.199441         1.725435
 C        -0.961389         0.653444         2.298892
 O        -3.602974         1.718177         2.055942
 C        -4.308112         1.674442         0.760542
 C        -3.674684         0.405573        -0.063248
 C        -2.488757         0.106463         0.839502
 H         0.378835        -1.020930         0.442127
 H        -0.501696         2.604414         0.917718
 H        -1.752086         2.098093        -0.435688
 H        -0.142709         1.210998         2.777526
 H        -1.080756        -0.283621         2.827130
 H        -5.502985         1.501165         0.958878
 H        -4.311105         2.693718         0.285641
 H        -4.441556        -0.566055         0.083025
 H        -3.478061         0.734916        -1.120352
 H        -2.612935        -0.963937         1.346722
