19
Iteration:  1617charge 0 multiplicity 1
 O         0.095636        -0.245457         0.125360
 C        -0.969623         0.468118         0.745081
 C        -1.352619         1.904899         0.658859
 C        -2.355018         1.157941         1.745695
 C        -1.076844         0.557921         2.294724
 O        -3.600982         1.697779         2.102076
 C        -4.272017         1.691481         0.819092
 C        -3.544038         0.628938        -0.123472
 C        -2.441096        -0.042313         0.695105
 H         0.845221         0.320636         0.277365
 H        -0.713507         2.674511         1.053734
 H        -1.791564         2.171700        -0.323429
 H        -0.325886         1.157134         2.899592
 H        -0.964255        -0.373649         2.752548
 H        -5.283304         1.508058         0.978816
 H        -4.315215         2.732021         0.453446
 H        -4.317226        -0.095686        -0.446378
 H        -3.101641         1.042050        -0.983815
 H        -2.484592        -0.991210         1.315012
