19
Iteration:   352
 O         0.191604        -0.294669         0.154487
 C        -0.884827         0.410326         0.791557
 C        -1.194736         1.955311         0.870598
 C        -2.227174         1.242344         1.680521
 C        -1.187707         0.358823         2.394951
 O        -3.479906         1.880950         1.943707
 C        -4.468222         1.372876         0.932000
 C        -3.757953         0.688639        -0.276802
 C        -2.481686         0.248279         0.611923
 H         0.792518         0.406612        -0.202232
 H        -0.562624         2.717978         1.455817
 H        -1.500272         2.366326        -0.159667
 H        -0.303908         0.709015         2.948568
 H        -1.525794        -0.549847         2.971508
 H        -5.213332         0.686098         1.395719
 H        -4.929463         2.309958         0.488384
 H        -4.154983        -0.212365        -0.699754
 H        -3.654679         1.461583        -1.066710
 H        -2.568056        -0.799098         0.875009
