19
Iteration:   974
 O         0.074166        -0.384043         0.141398
 C        -0.841757         0.464384         0.775885
 C        -1.210648         2.001372         0.761500
 C        -2.285668         1.357357         1.610514
 C        -1.232521         0.453054         2.322135
 O        -3.531640         1.914305         2.023380
 C        -4.436202         1.341146         1.003653
 C        -3.579893         0.645866        -0.154912
 C        -2.388486         0.143203         0.566379
 H         0.943294        -0.006923         0.200792
 H        -0.525479         2.778531         1.201636
 H        -1.683108         2.432981        -0.144500
 H        -0.365655         0.839711         2.974007
 H        -1.737109        -0.454965         2.613378
 H        -4.995686         0.448318         1.406575
 H        -5.216655         2.038809         0.665100
 H        -4.019332        -0.243289        -0.673800
 H        -3.314683         1.449220        -0.816557
 H        -2.727377        -0.843440         0.948181
