19
Iteration:  4097
 O         0.122079        -0.191252         0.150855
 C        -0.899979         0.494243         0.775143
 C        -1.359355         1.887885         0.445701
 C        -2.297911         1.238163         1.665512
 C        -1.072680         0.608561         2.362317
 O        -3.535348         1.749503         2.100196
 C        -4.302146         1.656535         0.879349
 C        -3.655619         0.489149        -0.129979
 C        -2.455139        -0.017827         0.750240
 H         0.662445        -0.726017         0.821722
 H        -0.796480         2.754134         0.929534
 H        -1.769788         1.929520        -0.568490
 H        -0.438489         1.407863         2.929739
 H        -1.087320        -0.352216         3.018367
 H        -5.312785         1.365048         1.046061
 H        -4.414083         2.645559         0.361816
 H        -4.221315        -0.329387        -0.002939
 H        -3.526904         0.799044        -1.139876
 H        -2.632576        -0.906981         1.240417
