19
Iteration:  2709charge 0 multiplicity 1
 O         0.217473        -0.386635         0.201538
 C        -0.870760         0.425743         0.757824
 C        -1.141060         2.002281         0.657894
 C        -2.315725         1.358044         1.627883
 C        -1.206089         0.483228         2.368176
 O        -3.544423         1.845478         2.070066
 C        -4.446163         1.293801         0.963792
 C        -3.676785         0.736037        -0.186133
 C        -2.451524         0.156610         0.612649
 H        -0.022527        -0.381603        -0.803006
 H        -0.301219         2.457402         1.116076
 H        -1.384120         2.434975        -0.297298
 H        -0.523472         1.254939         2.956822
 H        -1.490738        -0.462577         2.891423
 H        -4.902909         0.441250         1.488124
 H        -4.989689         2.222137         0.681355
 H        -4.354443         0.051422        -0.750224
 H        -3.247352         1.553924        -0.826758
 H        -2.913153        -0.587448         1.212497
