19
Iteration:  4857charge 0 multiplicity 1
 O         0.087172        -0.233901         0.156249
 C        -0.971487         0.448339         0.750371
 C        -1.342873         1.916838         0.595476
 C        -2.335944         1.283424         1.667860
 C        -1.103241         0.696418         2.312245
 O        -3.442661         1.844213         2.092956
 C        -4.297760         1.484934         0.913915
 C        -3.556016         0.493055        -0.179922
 C        -2.443729        -0.007774         0.817028
 H        -0.405019        -0.959104        -0.276723
 H        -0.590322         2.570824         0.945357
 H        -1.829975         2.228805        -0.362540
 H        -0.264058         1.214997         2.741426
 H        -1.283067        -0.176253         2.908046
 H        -5.276732         1.124185         1.341086
 H        -4.510272         2.423800         0.277656
 H        -4.272693        -0.229063        -0.722010
 H        -3.283568         1.127749        -0.986964
 H        -2.640801        -1.071512         1.266845
