19
Iteration:    18charge 0 multiplicity 1
 O         0.046708        -0.276657         0.017848
 C        -0.951968         0.428588         0.818172
 C        -1.102703         1.898684         0.780741
 C        -2.342613         1.198163         1.761771
 C        -1.144311         0.443636         2.457581
 O        -3.607195         1.809689         1.970522
 C        -4.470471         1.339173         0.839751
 C        -3.449005         0.893450        -0.202672
 C        -2.469511         0.124088         0.675878
 H         0.828477        -0.184865         0.515900
 H        -0.355372         2.562137         1.212291
 H        -1.313463         2.391825        -0.252511
 H        -0.377617         1.145084         2.807425
 H        -1.384894        -0.500692         3.066774
 H        -5.144364         0.482650         1.138767
 H        -5.136265         2.138907         0.480664
 H        -3.881553         0.403067        -1.092180
 H        -2.988500         1.814259        -0.607390
 H        -2.784413        -0.896949         0.973116
