19
Iteration:  2635charge 0 multiplicity 1
 O         0.116415        -0.239663         0.094278
 C        -0.897371         0.392303         0.812954
 C        -1.210304         1.948429         0.704331
 C        -2.256825         1.290882         1.670871
 C        -1.169660         0.474206         2.408750
 O        -3.542588         1.785373         2.027112
 C        -4.343964         1.572561         0.839975
 C        -3.642126         0.557550        -0.078066
 C        -2.437820         0.070527         0.708360
 H         0.321616         0.445058        -0.515950
 H        -0.529776         2.699268         1.074463
 H        -1.708524         2.199123        -0.282228
 H        -0.443046         1.013382         3.019523
 H        -1.494692        -0.577480         2.604639
 H        -5.447930         1.261765         1.151019
 H        -4.455730         2.476859         0.263801
 H        -4.325842        -0.264587        -0.478150
 H        -3.436544         1.079822        -1.062796
 H        -2.822019        -0.948770         1.120246
