19
Iteration:   704charge 0 multiplicity 1
 O         0.093550        -0.238439         0.061773
 C        -0.886853         0.337980         0.787605
 C        -1.148209         1.978992         0.705203
 C        -2.276302         1.378047         1.583326
 C        -1.286191         0.473039         2.383928
 O        -3.497552         1.899683         1.977399
 C        -4.444905         1.266305         0.990533
 C        -3.598582         0.714923        -0.161929
 C        -2.415473         0.094076         0.687226
 H         0.925280        -0.104474         0.635021
 H        -0.514528         2.555578         1.392623
 H        -1.395282         2.335327        -0.286345
 H        -0.300728         0.688569         3.014789
 H        -1.801407        -0.364718         2.827534
 H        -4.954319         0.436461         1.522118
 H        -5.204580         2.018743         0.653882
 H        -4.130840         0.020360        -0.891919
 H        -3.387325         1.618713        -0.707436
 H        -2.757583        -0.902177         1.127112
