19
Iteration:   131charge 0 multiplicity 1
 O         0.079426        -0.202539         0.112190
 C        -0.955760         0.409394         0.833243
 C        -1.259355         1.915304         0.812465
 C        -2.299460         1.153528         1.687485
 C        -1.199945         0.359945         2.382608
 O        -3.552714         1.785124         2.087082
 C        -4.322209         1.522959         0.816804
 C        -3.476077         0.798919        -0.252972
 C        -2.473120         0.039112         0.594542
 H         0.716719         0.513761        -0.012547
 H        -0.644235         2.618072         1.406479
 H        -1.509394         2.375058        -0.147056
 H        -0.525047         0.988625         2.982301
 H        -1.503413        -0.572066         2.937262
 H        -5.232313         0.930453         1.130732
 H        -4.710383         2.488540         0.450653
 H        -4.136018         0.220979        -0.849248
 H        -2.996287         1.437913        -0.928206
 H        -2.722280        -0.923675         0.987747
