19
Iteration:  2789charge 0 multiplicity 1
 O         0.089097        -0.223973         0.134204
 C        -0.965794         0.415962         0.829722
 C        -1.061173         1.859103         0.677569
 C        -2.292732         1.238025         1.702180
 C        -1.115925         0.536166         2.381203
 O        -3.518834         1.846338         1.980762
 C        -4.412165         1.414868         0.907086
 C        -3.672568         0.683532        -0.156427
 C        -2.514370         0.075114         0.670245
 H         0.580558         0.315990        -0.577425
 H        -0.466711         2.546369         1.125605
 H        -1.441666         2.258022        -0.234420
 H        -0.335846         0.991978         2.948469
 H        -1.445612        -0.379150         3.044353
 H        -5.248260         0.698277         1.246813
 H        -4.915474         2.260932         0.544588
 H        -4.152444        -0.120762        -0.800690
 H        -3.274076         1.447606        -0.832607
 H        -2.672931        -0.854374         1.194354
