19
Iteration:  2858
 O         0.070658        -0.175640         0.048943
 C        -0.900489         0.451570         0.762307
 C        -1.300609         1.912917         0.687373
 C        -2.314597         1.174978         1.730450
 C        -1.060755         0.600421         2.348172
 O        -3.627828         1.675628         2.069106
 C        -4.221311         1.654066         0.801781
 C        -3.658303         0.549636        -0.100626
 C        -2.464460         0.007686         0.721863
 H         0.696822        -0.712840         0.602398
 H        -0.544415         2.647957         1.116386
 H        -1.534739         2.351511        -0.299142
 H        -0.212563         1.210516         2.784594
 H        -1.099176        -0.251738         2.999501
 H        -5.294938         1.573587         0.922414
 H        -4.168244         2.690351         0.300880
 H        -4.456098        -0.077153        -0.374131
 H        -3.302440         1.061068        -1.031889
 H        -2.794718        -0.917068         1.307139
