19
Iteration:   746
 O         0.013308        -0.292880         0.102439
 C        -0.931950         0.447225         0.822994
 C        -1.242290         1.985525         0.843570
 C        -2.266161         1.250139         1.623951
 C        -1.040851         0.464201         2.357094
 O        -3.492192         1.883185         1.941726
 C        -4.464615         1.368387         0.894024
 C        -3.556124         0.705926        -0.146498
 C        -2.453387         0.035666         0.642761
 H         0.834456         0.253890        -0.123850
 H        -0.568249         2.477991         1.531486
 H        -1.568710         2.578730        -0.085916
 H        -0.389605         1.159806         2.953559
 H        -1.517902        -0.314936         2.892567
 H        -5.229714         0.681597         1.325265
 H        -5.066551         2.182158         0.425561
 H        -4.210340        -0.147108        -0.604038
 H        -3.124565         1.390191        -0.943804
 H        -2.696649        -0.997227         1.098433
