19
Iteration:  4561charge 0 multiplicity 1
 O         0.136499        -0.266610         0.143666
 C        -0.969745         0.373498         0.779052
 C        -1.227982         1.859310         0.619375
 C        -2.309314         1.304721         1.646864
 C        -1.088074         0.688683         2.402522
 O        -3.466987         1.918436         1.898890
 C        -4.456416         1.310870         1.024030
 C        -3.573516         0.654064        -0.125895
 C        -2.488133         0.078340         0.737204
 H        -0.279227        -0.878077        -0.525817
 H        -0.434629         2.476402         1.112549
 H        -1.488926         2.412911        -0.266203
 H        -0.218326         1.301372         2.749807
 H        -1.294353        -0.091238         3.162689
 H        -5.095797         0.504558         1.481866
 H        -5.127825         2.056137         0.681908
 H        -4.099531        -0.107958        -0.754816
 H        -3.185148         1.354344        -0.839285
 H        -2.789251        -0.887859         1.152827
