19
Iteration:  4865
 O         0.065822        -0.214878         0.117387
 C        -0.974945         0.437834         0.770567
 C        -1.321773         1.903966         0.563238
 C        -2.245623         1.324874         1.658016
 C        -1.059885         0.668279         2.355402
 O        -3.521679         1.836252         2.096712
 C        -4.297629         1.494228         0.926643
 C        -3.532609         0.500489        -0.171839
 C        -2.554889        -0.019316         0.804671
 H        -0.043356        -1.154594        -0.207200
 H        -0.546819         2.584257         0.913574
 H        -1.810502         2.107863        -0.392459
 H        -0.401347         1.418760         2.765026
 H        -1.250838        -0.219043         2.897791
 H        -5.221816         0.980099         1.308850
 H        -4.564899         2.545357         0.423975
 H        -4.005871        -0.249581        -0.637121
 H        -2.989089         1.088954        -0.999529
 H        -2.687813        -0.965066         1.262330
