19
Iteration:   516charge 0 multiplicity 1
 O         0.214169        -0.143982         0.231003
 C        -0.910271         0.374367         0.766085
 C        -1.350128         1.840067         0.616863
 C        -2.330083         1.163737         1.716302
 C        -1.137903         0.532214         2.273013
 O        -3.564042         1.671471         2.205242
 C        -4.250550         1.699504         0.832618
 C        -3.627220         0.585015        -0.216807
 C        -2.514539         0.049092         0.655096
 H         0.708813         0.552740        -0.275400
 H        -0.594808         2.548006         0.941382
 H        -1.923762         2.121262        -0.369171
 H        -0.441223         1.182902         2.801940
 H        -1.292882        -0.403460         2.949311
 H        -5.316453         1.500630         0.949402
 H        -4.220683         2.775924         0.487191
 H        -4.462939        -0.006911        -0.490928
 H        -3.245289         1.072955        -1.147311
 H        -2.826524        -0.926079         1.102825
