19
Iteration:   444charge 0 multiplicity 1
 O         0.053367        -0.183685         0.130663
 C        -0.934739         0.462700         0.790050
 C        -1.113455         1.963788         0.823335
 C        -2.236507         1.295944         1.626995
 C        -1.197915         0.475910         2.368323
 O        -3.546261         1.750138         1.982994
 C        -4.435956         1.400235         0.872539
 C        -3.561159         0.685716        -0.209308
 C        -2.415572         0.070782         0.729660
 H        -0.402803        -0.759673        -0.463566
 H        -0.299992         2.596528         1.172991
 H        -1.705497         2.431069         0.065006
 H        -0.395444         1.056804         2.861537
 H        -1.321397        -0.450154         2.895288
 H        -5.278963         0.862434         1.334933
 H        -4.765390         2.357619         0.423192
 H        -3.987186        -0.198361        -0.857790
 H        -3.117305         1.395746        -0.912320
 H        -2.757333        -0.816148         1.279501
