19
Iteration:  1271
 O        -0.006539        -0.272092         0.015557
 C        -0.880889         0.471038         0.769299
 C        -1.102265         1.954725         0.757422
 C        -2.273196         1.194900         1.715446
 C        -1.107119         0.525429         2.466381
 O        -3.584772         1.776676         1.993972
 C        -4.431080         1.430014         0.801322
 C        -3.596030         0.614471        -0.166406
 C        -2.452329         0.166019         0.746017
 H         0.889466         0.144560         0.036769
 H        -0.383880         2.594261         1.229826
 H        -1.541343         2.345045        -0.166448
 H        -0.289815         1.192283         2.982512
 H        -1.361428        -0.431154         2.984499
 H        -5.355105         0.988819         1.178832
 H        -4.788932         2.436261         0.442246
 H        -4.233610        -0.201628        -0.471797
 H        -3.345784         1.111450        -1.089636
 H        -2.683021        -0.740112         1.277583
