19
Iteration:   744
 O         0.016217        -0.275332         0.099626
 C        -0.927585         0.430896         0.830233
 C        -1.233826         1.974270         0.839899
 C        -2.276463         1.246069         1.636119
 C        -1.029857         0.465328         2.363254
 O        -3.490838         1.898111         1.940628
 C        -4.468874         1.355936         0.892474
 C        -3.564464         0.702663        -0.175246
 C        -2.464706         0.034923         0.662910
 H         0.807927         0.207696        -0.080652
 H        -0.575961         2.526455         1.498007
 H        -1.550369         2.588437        -0.125254
 H        -0.393699         1.112421         2.888049
 H        -1.484115        -0.359022         2.923697
 H        -5.202866         0.702463         1.433955
 H        -5.069614         2.151478         0.437459
 H        -4.179741        -0.091024        -0.659699
 H        -3.132864         1.457595        -0.961132
 H        -2.700307        -0.987014         1.036978
