19
Iteration:  2322charge 0 multiplicity 1
 O         0.140751        -0.319468         0.214346
 C        -0.940279         0.392507         0.735359
 C        -1.245621         2.002934         0.746324
 C        -2.306859         1.274323         1.670427
 C        -1.050924         0.534815         2.336776
 O        -3.560430         1.704371         2.058491
 C        -4.445588         1.566857         0.848149
 C        -3.589009         0.707811        -0.176765
 C        -2.463023         0.085720         0.671566
 H        -0.113598        -0.527559        -0.745381
 H        -0.502120         2.586604         1.224565
 H        -1.536648         2.287583        -0.245947
 H        -0.261735         1.091238         2.771681
 H        -0.996188        -0.349888         2.882827
 H        -5.254535         1.013651         1.323030
 H        -4.821342         2.594760         0.612330
 H        -4.143776        -0.232448        -0.446528
 H        -3.187987         1.374119        -1.030896
 H        -2.635783        -0.981482         0.949221
