19
Iteration:   582
 O         0.035390        -0.201171         0.043320
 C        -0.966234         0.498579         0.782819
 C        -1.215990         2.035347         0.817823
 C        -2.243009         1.244139         1.757715
 C        -1.059489         0.371122         2.327005
 O        -3.666382         1.814457         2.023616
 C        -4.300203         1.590565         0.728652
 C        -3.615618         0.494965        -0.082615
 C        -2.419192        -0.008261         0.743947
 H         0.651977         0.444748        -0.298806
 H        -0.390356         2.582462         1.259507
 H        -1.818040         2.738780         0.060163
 H        -0.287275         0.739514         3.064774
 H        -1.354529        -0.670630         2.725303
 H        -5.358271         1.335022         0.897822
 H        -4.379846         2.539781         0.106687
 H        -4.196657        -0.340899        -0.475984
 H        -3.057249         0.872380        -0.988380
 H        -2.549474        -0.976053         1.310483
