19
Iteration:  2235
 O         0.157897        -0.188642         0.139159
 C        -0.956102         0.403826         0.750245
 C        -1.267775         1.973365         0.762902
 C        -2.287927         1.275151         1.690658
 C        -1.103755         0.429688         2.324082
 O        -3.610245         1.638344         2.064292
 C        -4.193654         1.777908         0.759234
 C        -3.722688         0.487739        -0.068211
 C        -2.502590         0.067485         0.714553
 H         0.525616         0.230712        -0.675150
 H        -0.518890         2.536662         1.278061
 H        -1.579488         2.459526        -0.166980
 H        -0.418903         1.195478         2.962585
 H        -1.305082        -0.562608         2.707740
 H        -5.280731         1.695939         0.897642
 H        -3.898214         2.703313         0.148750
 H        -4.371465        -0.404464         0.054355
 H        -3.492923         0.711814        -1.177852
 H        -2.676249        -0.953276         1.156150
