19
Iteration:  1611
 O         0.078255        -0.212266         0.124245
 C        -0.962831         0.385333         0.736430
 C        -1.374998         1.888438         0.660900
 C        -2.329210         1.183285         1.743975
 C        -1.044358         0.601174         2.353378
 O        -3.571961         1.676403         2.137663
 C        -4.246549         1.708447         0.780539
 C        -3.535288         0.617946        -0.119874
 C        -2.459226        -0.042147         0.642092
 H         0.789767         0.417466         0.237160
 H        -0.723019         2.701203         1.062100
 H        -1.934663         2.237246        -0.250984
 H        -0.396766         1.230784         2.917967
 H        -1.148399        -0.498335         2.804508
 H        -5.380593         1.354998         0.878734
 H        -4.301451         2.740937         0.396916
 H        -4.363924        -0.058469        -0.300742
 H        -3.114989         0.998595        -1.143032
 H        -2.763309        -0.874339         1.275628
