19
Iteration:  3457charge 0 multiplicity 1
 O         0.166799        -0.102951         0.223351
 C        -0.946054         0.514808         0.745908
 C        -1.351826         1.843831         0.700434
 C        -2.293634         1.178865         1.716284
 C        -1.082117         0.502689         2.329627
 O        -3.578538         1.740684         2.049239
 C        -4.163809         1.807059         0.788166
 C        -3.706081         0.455897        -0.096627
 C        -2.486939        -0.058848         0.699063
 H        -0.116031        -0.444587        -0.607074
 H        -0.654222         2.685853         0.995184
 H        -1.913728         2.074443        -0.299384
 H        -0.284606         1.139537         2.758523
 H        -1.283291        -0.401687         2.883774
 H        -5.217157         1.860818         1.042674
 H        -3.635768         2.535072         0.136387
 H        -4.436308        -0.389983        -0.181646
 H        -3.662956         0.645300        -1.183873
 H        -2.504926        -1.040367         1.146341
