19
Iteration:  1969
 O         0.037006        -0.291470        -0.000630
 C        -0.860535         0.456638         0.748575
 C        -1.254533         1.969367         0.726649
 C        -2.255415         1.296510         1.689839
 C        -1.138148         0.536469         2.399314
 O        -3.662365         1.680521         2.067067
 C        -4.303571         1.653292         0.810273
 C        -3.606095         0.533364        -0.142939
 C        -2.427939         0.047467         0.782369
 H         0.939954         0.058397         0.315992
 H        -0.575884         2.628321         1.188748
 H        -1.677061         2.323649        -0.204344
 H        -0.302402         1.061369         2.861631
 H        -1.177142        -0.585056         2.780912
 H        -5.424051         1.393196         1.020883
 H        -4.407979         2.770308         0.474862
 H        -4.260324        -0.209145        -0.479817
 H        -3.107976         1.100077        -0.938663
 H        -2.520471        -0.894094         1.379334
