19
Iteration:  4739
 O        -0.059783        -0.296053         0.046101
 C        -1.016391         0.430164         0.733066
 C        -1.301674         1.994255         0.655077
 C        -2.226385         1.325893         1.612831
 C        -1.007560         0.688431         2.341988
 O        -3.557011         1.703514         2.060493
 C        -4.317177         1.572239         0.786152
 C        -3.530343         0.433188        -0.052777
 C        -2.455162         0.014280         0.861351
 H         0.796079        -0.101128         0.581063
 H        -0.507223         2.645075         1.069196
 H        -1.755589         2.480560        -0.279875
 H        -0.180682         1.248425         2.885249
 H        -1.215915        -0.178643         3.061209
 H        -5.383431         1.464455         0.999177
 H        -4.183239         2.472981         0.240925
 H        -4.398983        -0.261928        -0.484723
 H        -3.166895         0.838751        -0.933479
 H        -2.552644        -0.840801         1.533676
