19
Iteration:  4008charge 0 multiplicity 1
 O         0.107642        -0.090131        -0.018039
 C        -0.936635         0.457747         0.702996
 C        -1.211878         1.883763         0.697472
 C        -2.278784         1.240260         1.702197
 C        -1.234194         0.619766         2.443561
 O        -3.480289         1.946574         1.974957
 C        -4.348633         1.498463         0.800937
 C        -3.609663         0.338293        -0.083824
 C        -2.436954        -0.006677         0.870561
 H        -0.308905        -0.983308        -0.306094
 H        -0.342624         2.344910         1.216791
 H        -1.701528         2.264010        -0.225455
 H        -0.608302         1.504172         2.878716
 H        -1.270673        -0.179663         3.219162
 H        -5.195661         1.054740         1.379399
 H        -4.581610         2.422828         0.289896
 H        -4.236706        -0.474599        -0.171920
 H        -3.198357         0.688462        -0.996997
 H        -2.571978        -0.914450         1.426691
