19
Iteration:   864
 O         0.089883        -0.226628        -0.096006
 C        -0.882578         0.472449         0.749726
 C        -1.200523         1.999844         0.844256
 C        -2.298462         1.296872         1.778338
 C        -1.154399         0.497390         2.399285
 O        -3.606474         1.633453         2.039198
 C        -4.286096         1.667046         0.643834
 C        -3.693743         0.472013        -0.088938
 C        -2.469802         0.027893         0.837774
 H         0.933390         0.198723         0.215427
 H        -0.471968         2.559322         1.432932
 H        -1.534534         2.559971        -0.145649
 H        -0.526137         1.223692         2.905635
 H        -1.269699        -0.494879         2.826424
 H        -5.357687         1.743654         0.897033
 H        -4.007062         2.693658         0.389572
 H        -4.436315        -0.324764        -0.271921
 H        -3.271155         0.842377        -1.066188
 H        -2.637967        -0.926657         1.382871
