19
Iteration:  4410
 O         0.212634        -0.136528         0.037314
 C        -0.821071         0.471859         0.692922
 C        -1.239748         1.950555         0.649153
 C        -2.285875         1.297209         1.643879
 C        -1.151174         0.520450         2.412851
 O        -3.552842         1.754223         2.015012
 C        -4.356595         1.671960         0.763151
 C        -3.745223         0.384582         0.016719
 C        -2.485568         0.029870         0.802706
 H         0.184533        -1.001860         0.470885
 H        -0.438799         2.625897         0.970788
 H        -1.711391         2.361611        -0.239611
 H        -0.366226         1.095450         3.008686
 H        -1.381939        -0.401033         2.992389
 H        -5.439071         1.441344         1.023727
 H        -4.191698         2.621783         0.337946
 H        -4.523275        -0.504906         0.011603
 H        -3.539125         0.559037        -1.016849
 H        -2.784494        -0.794163         1.453600
