19
Iteration:  3667charge 0 multiplicity 1
 O         0.078210        -0.289810         0.125735
 C        -0.831455         0.465849         0.731851
 C        -1.300903         1.897442         0.651160
 C        -2.306021         1.297010         1.698588
 C        -1.143624         0.665994         2.425411
 O        -3.483224         1.777041         2.029539
 C        -4.403690         1.528373         0.844012
 C        -3.569086         0.583270        -0.118100
 C        -2.422127        -0.007069         0.744078
 H        -0.206999        -0.735155        -0.632488
 H        -0.645537         2.732076         1.106888
 H        -1.764850         2.186943        -0.316155
 H        -0.543206         1.318445         3.029503
 H        -1.437106        -0.294544         2.897068
 H        -5.337538         1.047095         1.265889
 H        -4.654015         2.510860         0.409696
 H        -4.176046        -0.130080        -0.761289
 H        -3.111841         1.080024        -0.863924
 H        -2.576732        -0.885466         1.296049
