19
Iteration:  1643
 O         0.093143        -0.290945         0.067722
 C        -0.908575         0.438133         0.785183
 C        -1.284293         1.992210         0.750766
 C        -2.243376         1.279811         1.665912
 C        -1.071696         0.540620         2.368629
 O        -3.553027         1.684273         2.093547
 C        -4.364753         1.569834         0.796410
 C        -3.660795         0.573921        -0.161256
 C        -2.469747         0.102499         0.659925
 H         0.937693        -0.031077         0.473755
 H        -0.619781         2.768757         1.208328
 H        -1.761586         2.393849        -0.194412
 H        -0.383287         1.003075         2.988361
 H        -1.279691        -0.452245         2.860317
 H        -5.396586         1.262545         1.145675
 H        -4.392436         2.552874         0.426992
 H        -4.322797        -0.264481        -0.390860
 H        -3.350470         1.014082        -1.194863
 H        -2.700218        -0.714983         1.340602
