19
Iteration:  1562charge 0 multiplicity 1
 O         0.072464        -0.232033         0.026452
 C        -0.933798         0.443897         0.748270
 C        -1.293648         1.964368         0.778210
 C        -2.318677         1.260524         1.758217
 C        -1.088427         0.421777         2.371942
 O        -3.603429         1.730104         2.050271
 C        -4.316533         1.677735         0.702772
 C        -3.611950         0.542270        -0.117304
 C        -2.402112         0.056723         0.780427
 H         0.785369         0.484064        -0.079754
 H        -0.470989         2.513527         1.332921
 H        -1.557460         2.565748        -0.113192
 H        -0.245125         1.066419         2.833284
 H        -1.468483        -0.473677         2.742180
 H        -5.268443         1.344972         0.931758
 H        -4.190083         2.665140         0.256948
 H        -4.276773        -0.308799         0.187322
 H        -3.511458         0.585759        -1.182610
 H        -2.391311        -1.027442         1.226665
