19
Iteration:   814charge 0 multiplicity 1
 O         0.206141        -0.200253         0.109799
 C        -0.908640         0.418472         0.659048
 C        -1.465577         1.925004         0.686325
 C        -2.326988         1.081493         1.713122
 C        -1.098141         0.558304         2.408310
 O        -3.527386         1.730099         2.089845
 C        -4.256968         1.733017         0.786572
 C        -3.609992         0.550418        -0.124700
 C        -2.522851        -0.056227         0.722397
 H         0.868375         0.459931         0.082166
 H        -0.763822         2.654538         1.200472
 H        -1.883747         2.409468        -0.138593
 H        -0.395298         1.267882         2.966338
 H        -1.393875        -0.357407         2.897948
 H        -5.335885         1.685481         0.932291
 H        -4.063764         2.773040         0.507092
 H        -4.378524        -0.163287        -0.567223
 H        -3.104764         1.065632        -0.901510
 H        -2.803060        -1.015358         1.248493
