19
Iteration:  4462charge 0 multiplicity 1
 O         0.132015        -0.261221         0.055056
 C        -0.881560         0.356352         0.729507
 C        -1.403480         1.938943         0.569819
 C        -2.311565         1.307726         1.686881
 C        -1.063366         0.654900         2.362615
 O        -3.555053         1.763990         2.033844
 C        -4.335254         1.524606         0.848876
 C        -3.556704         0.596681        -0.065731
 C        -2.490359         0.034253         0.869172
 H         0.596045        -0.884574         0.576811
 H        -0.698245         2.777532         0.941417
 H        -1.845272         2.180430        -0.440831
 H        -0.265127         1.254593         2.885485
 H        -1.323919        -0.343023         2.853852
 H        -5.394410         1.151751         1.109022
 H        -4.452397         2.566139         0.431820
 H        -4.127119        -0.100785        -0.660637
 H        -3.104999         1.117003        -0.781033
 H        -2.773225        -0.928055         1.281254
