19
Iteration:   817
 O         0.200107        -0.195663         0.101698
 C        -0.913911         0.406253         0.667288
 C        -1.469646         1.942601         0.694957
 C        -2.343525         1.080843         1.700908
 C        -1.105322         0.558667         2.418776
 O        -3.513834         1.752391         2.132238
 C        -4.235653         1.734185         0.761047
 C        -3.631786         0.529469        -0.143171
 C        -2.500574        -0.068291         0.723235
 H         0.956902         0.493473         0.092574
 H        -0.836536         2.650487         1.193670
 H        -1.977601         2.343653        -0.166672
 H        -0.455629         1.227885         2.949076
 H        -1.307801        -0.489602         2.878242
 H        -5.325233         1.681783         0.948186
 H        -4.059551         2.747216         0.368373
 H        -4.328861        -0.090125        -0.544462
 H        -3.112923         1.066399        -0.921072
 H        -2.792288        -0.959149         1.219314
