19
Iteration:    85
 O         0.198683        -0.302334         0.184300
 C        -0.864646         0.363735         0.797295
 C        -1.085084         1.985873         0.975310
 C        -2.333011         1.269534         1.590159
 C        -1.248606         0.322465         2.261694
 O        -3.511904         1.875714         1.939995
 C        -4.485381         1.344900         0.982758
 C        -3.683092         0.786079        -0.264959
 C        -2.467383         0.226679         0.516488
 H         1.076482         0.113564         0.481945
 H        -0.494585         2.616550         1.601625
 H        -1.195055         2.627271        -0.024166
 H        -0.510595         0.816454         2.872860
 H        -1.672287        -0.673857         2.752117
 H        -5.036784         0.588638         1.611086
 H        -5.197789         2.137815         0.843864
 H        -4.290677         0.003471        -0.749473
 H        -3.535028         1.561006        -0.985555
 H        -2.787011        -0.759970         0.927818
