19
Iteration:  1851
 O         0.064805        -0.379325         0.055645
 C        -0.925042         0.448357         0.723253
 C        -1.302935         2.073240         0.734120
 C        -2.338734         1.275037         1.667302
 C        -1.109295         0.535253         2.400072
 O        -3.562663         1.744398         2.080903
 C        -4.333795         1.548914         0.855457
 C        -3.556373         0.549716        -0.150613
 C        -2.420512         0.141232         0.713830
 H         0.946982         0.062334        -0.021489
 H        -0.345457         2.463183         1.290880
 H        -1.602932         2.518550        -0.228097
 H        -0.414540         1.020504         3.019497
 H        -1.312184        -0.568422         2.771846
 H        -5.380567         1.166586         1.094199
 H        -4.687182         2.537726         0.516134
 H        -4.260046        -0.309707        -0.377623
 H        -3.177365         1.085710        -1.109712
 H        -2.630276        -0.885938         1.172998
