19
Iteration:  3802
 O         0.136465        -0.379689         0.229137
 C        -0.930917         0.483507         0.758718
 C        -1.363346         1.975369         0.661850
 C        -2.354247         1.246377         1.685691
 C        -1.016578         0.664858         2.327568
 O        -3.560473         1.796865         2.069519
 C        -4.334975         1.565364         0.837841
 C        -3.609758         0.487109        -0.125721
 C        -2.389907         0.049784         0.687036
 H         0.295320        -0.301930        -0.717288
 H        -0.825713         2.906376         0.886823
 H        -1.969772         2.087403        -0.291591
 H        -0.208483         1.388724         2.642399
 H        -1.236712        -0.204375         2.947337
 H        -5.081177         1.049607         1.370933
 H        -4.438419         2.583639         0.389658
 H        -4.343167        -0.212679        -0.410070
 H        -3.522971         1.129273        -1.092931
 H        -2.549337        -0.978328         1.146162
