19
Iteration:  2482charge 0 multiplicity 1
 O         0.132509        -0.259361         0.159325
 C        -0.964569         0.434259         0.725306
 C        -1.301212         1.907946         0.710561
 C        -2.287867         1.285814         1.695358
 C        -1.144188         0.559140         2.314352
 O        -3.510216         1.764046         2.049237
 C        -4.343010         1.497839         0.874831
 C        -3.539441         0.690897        -0.141512
 C        -2.447514         0.047294         0.719662
 H        -0.085580        -0.695790        -0.711830
 H        -0.741183         2.590106         1.382450
 H        -1.662990         2.278278        -0.293574
 H        -0.441390         1.090750         2.906914
 H        -1.356393        -0.355549         2.766152
 H        -5.188636         0.803597         1.240819
 H        -4.706215         2.425455         0.479348
 H        -4.264817         0.100234        -0.681068
 H        -2.963245         1.302354        -0.732401
 H        -2.870394        -0.894768         1.163292
