19
Iteration:   599charge 0 multiplicity 1
 O         0.056435        -0.195137        -0.056157
 C        -0.876732         0.419070         0.784510
 C        -1.303465         1.898459         0.867361
 C        -2.355432         1.220562         1.769080
 C        -1.115779         0.437582         2.413359
 O        -3.520949         1.801541         1.959081
 C        -4.375889         1.558495         0.768166
 C        -3.534325         0.558560        -0.155311
 C        -2.442930         0.123935         0.798669
 H         0.796522         0.445649        -0.139206
 H        -0.716653         2.652340         1.435241
 H        -1.477356         2.316195        -0.062019
 H        -0.408756         1.043315         2.898547
 H        -1.304865        -0.513728         2.896765
 H        -5.329928         1.139802         1.131856
 H        -4.539161         2.501219         0.285330
 H        -4.213119        -0.271396        -0.334097
 H        -3.287581         1.002216        -1.135094
 H        -2.699098        -0.824583         1.256127
