19
Iteration:  4846charge 0 multiplicity 1
 O         0.100745        -0.276786         0.182629
 C        -0.918292         0.443984         0.767609
 C        -1.372767         1.942080         0.600135
 C        -2.255231         1.235804         1.676942
 C        -1.065546         0.640646         2.339291
 O        -3.477553         1.834967         2.034375
 C        -4.372087         1.511230         0.835924
 C        -3.631649         0.518630        -0.059613
 C        -2.381707         0.043320         0.708662
 H        -0.314291        -0.853354        -0.564103
 H        -0.770851         2.669599         1.083678
 H        -1.693628         2.384429        -0.372416
 H        -0.372418         1.375363         2.730283
 H        -1.263143        -0.249878         2.899586
 H        -5.315234         1.095091         1.290910
 H        -4.584423         2.558445         0.399032
 H        -4.413892        -0.318015        -0.212272
 H        -3.305265         1.008414        -0.961728
 H        -2.625694        -0.831993         1.445938
