19
Iteration:  4487charge 0 multiplicity 1
 O         0.095746        -0.186200         0.114948
 C        -0.969065         0.378619         0.733824
 C        -1.173985         1.906859         0.570112
 C        -2.291449         1.287949         1.705967
 C        -1.072328         0.674682         2.393939
 O        -3.523208         1.767776         2.056937
 C        -4.394711         1.493138         0.877942
 C        -3.653406         0.560877        -0.160583
 C        -2.475415         0.071438         0.786114
 H         0.245236        -1.069365         0.401912
 H        -0.439318         2.636486         0.919424
 H        -1.377302         2.079229        -0.497680
 H        -0.257266         1.332603         2.838101
 H        -1.263967        -0.219022         3.009644
 H        -5.275404         0.975619         1.371239
 H        -4.777737         2.448897         0.411597
 H        -4.319309        -0.292468        -0.536380
 H        -3.314171         1.061481        -1.057927
 H        -2.681370        -0.937948         1.138008
