19
Iteration:  4308charge 0 multiplicity 1
 O         0.069291        -0.201130         0.108563
 C        -0.956400         0.469861         0.715992
 C        -1.200906         1.950881         0.684325
 C        -2.267820         1.261975         1.690785
 C        -1.117954         0.668889         2.424181
 O        -3.501843         1.790616         1.986044
 C        -4.321908         1.450791         0.814138
 C        -3.653864         0.490544        -0.083339
 C        -2.439062         0.043751         0.744168
 H        -0.277080        -1.104390        -0.214684
 H        -0.446371         2.726588         1.092064
 H        -1.766393         2.402432        -0.229040
 H        -0.448780         1.385960         2.983682
 H        -1.227552        -0.339967         3.033391
 H        -5.285775         1.136340         1.242934
 H        -4.584540         2.427417         0.309618
 H        -4.289801        -0.365070        -0.226160
 H        -3.319937         0.964221        -0.959602
 H        -2.596835        -0.904223         1.204130
