19
Iteration:  1512
 O         0.111186        -0.209514         0.031721
 C        -0.953542         0.382701         0.752134
 C        -1.273618         1.864785         0.709602
 C        -2.289689         1.237971         1.710787
 C        -1.159132         0.558704         2.408634
 O        -3.603523         1.688015         2.067167
 C        -4.304246         1.655167         0.844969
 C        -3.552663         0.610154        -0.088290
 C        -2.438283         0.078594         0.670791
 H         0.872125         0.052385         0.494070
 H        -0.565083         2.618258         0.953777
 H        -1.745689         2.255469        -0.241623
 H        -0.470826         1.270184         2.749298
 H        -1.383499        -0.410509         2.910146
 H        -5.273469         1.087585         1.081477
 H        -4.442949         2.629472         0.334421
 H        -4.138474        -0.258228        -0.393875
 H        -3.344733         1.075470        -1.117259
 H        -2.643479        -0.841369         1.178970
