19
Iteration:  3267
 O         0.118487        -0.215048         0.036341
 C        -0.929262         0.372356         0.745506
 C        -1.213912         1.918132         0.748137
 C        -2.317707         1.259455         1.671169
 C        -1.147836         0.567586         2.369784
 O        -3.517328         1.856692         1.998185
 C        -4.435283         1.392515         0.873257
 C        -3.535497         0.707207        -0.157050
 C        -2.461825         0.071564         0.788857
 H         0.131610        -1.222045         0.186384
 H        -0.407855         2.605015         1.142934
 H        -1.616088         2.376446        -0.151891
 H        -0.566014         1.250305         2.988346
 H        -1.226116        -0.403584         2.998854
 H        -5.238957         0.709552         1.369336
 H        -4.779346         2.324420         0.457055
 H        -4.190383         0.038037        -0.677717
 H        -3.041071         1.229147        -0.981709
 H        -2.850052        -0.835418         1.269654
