19
Iteration:  3222charge 0 multiplicity 1
 O         0.131743        -0.132520         0.007938
 C        -0.963908         0.465409         0.767827
 C        -1.300904         1.927360         0.743487
 C        -2.297118         1.196294         1.728142
 C        -1.088555         0.559821         2.360155
 O        -3.582888         1.686126         2.040725
 C        -4.199333         1.708704         0.710303
 C        -3.642918         0.473306        -0.087105
 C        -2.506490         0.062830         0.815904
 H         0.117183        -1.131701         0.217807
 H        -0.613569         2.503664         1.311632
 H        -1.621425         2.445706        -0.166581
 H        -0.315378         1.153747         2.877254
 H        -1.213104        -0.424696         2.956418
 H        -5.297064         1.451939         0.886581
 H        -3.990901         2.635190         0.234072
 H        -4.300388        -0.383881        -0.255631
 H        -3.452757         0.785014        -1.066549
 H        -2.768242        -0.815741         1.393135
