19
Iteration:  2630charge 0 multiplicity 1
 O         0.085827        -0.227236         0.124339
 C        -0.871975         0.409849         0.820369
 C        -1.225748         1.921380         0.681322
 C        -2.214459         1.299939         1.697870
 C        -1.176396         0.489759         2.372401
 O        -3.518721         1.745119         2.027867
 C        -4.357512         1.587055         0.848519
 C        -3.638622         0.539915        -0.136003
 C        -2.460099         0.045559         0.714430
 H         0.238762         0.566158        -0.505138
 H        -0.523617         2.706368         1.061281
 H        -1.702041         2.278713        -0.201801
 H        -0.422874         0.996619         3.101770
 H        -1.531872        -0.477987         2.701208
 H        -5.352518         1.430633         1.099114
 H        -4.503569         2.636501         0.419309
 H        -4.320210        -0.240992        -0.375157
 H        -3.428453         0.944646        -1.139675
 H        -2.847369        -0.859588         1.057984
