19
Iteration:  3041charge 0 multiplicity 1
 O         0.268262        -0.211825         0.168364
 C        -0.897847         0.418287         0.722513
 C        -1.121956         1.966642         0.744325
 C        -2.318956         1.290943         1.569032
 C        -1.291320         0.507994         2.342154
 O        -3.421849         1.961296         1.935714
 C        -4.406669         1.371012         1.153396
 C        -3.704256         0.520920        -0.227474
 C        -2.585924         0.141115         0.634548
 H         0.174415        -1.132978         0.157761
 H        -0.276904         2.575491         1.153823
 H        -1.383494         2.483348        -0.155881
 H        -0.483211         0.857776         3.023469
 H        -1.768163        -0.408444         2.749086
 H        -5.067504         0.521116         1.699892
 H        -4.987924         2.160637         0.636563
 H        -4.197140        -0.391637        -0.631796
 H        -3.454656         1.336202        -1.067621
 H        -2.829402        -0.784408         1.137443
