19
Iteration:  1558
 O         0.076506        -0.238484         0.029481
 C        -0.959093         0.442117         0.736855
 C        -1.295550         1.967764         0.820448
 C        -2.320546         1.271289         1.784945
 C        -1.079555         0.429559         2.361272
 O        -3.585254         1.735642         2.022056
 C        -4.300717         1.658394         0.721207
 C        -3.623662         0.523792        -0.127913
 C        -2.378822         0.083614         0.770860
 H         0.756189         0.427023        -0.043961
 H        -0.552841         2.651573         1.297496
 H        -1.592388         2.474166        -0.067670
 H        -0.232897         0.994986         2.727688
 H        -1.474151        -0.574345         2.785104
 H        -5.391085         1.312053         0.999395
 H        -4.157323         2.661865         0.220770
 H        -4.332757        -0.263417         0.094445
 H        -3.530203         0.514996        -1.218966
 H        -2.525744        -0.878757         1.203117
