19
Iteration:  2316
 O         0.162214        -0.306822         0.186058
 C        -0.907179         0.412211         0.742396
 C        -1.242251         1.933984         0.735019
 C        -2.313910         1.234866         1.675671
 C        -1.101837         0.572374         2.287577
 O        -3.591703         1.711290         2.069793
 C        -4.425284         1.575770         0.908635
 C        -3.587149         0.712574        -0.185135
 C        -2.444864         0.075782         0.687842
 H        -0.018880        -0.564003        -0.697969
 H        -0.401377         2.523371         1.233079
 H        -1.621597         2.454776        -0.196377
 H        -0.211517         1.206716         2.790026
 H        -1.176869        -0.422180         2.916942
 H        -5.398473         1.072474         1.187411
 H        -4.646789         2.573334         0.463538
 H        -4.196060        -0.064217        -0.603161
 H        -3.136133         1.177084        -1.022645
 H        -2.714685        -0.846462         1.253358
