19
Iteration:  3894charge 0 multiplicity 1
 O         0.213771        -0.186421         0.218983
 C        -0.937055         0.328449         0.728720
 C        -1.207073         1.932817         0.631565
 C        -2.303113         1.326019         1.609033
 C        -1.149517         0.510625         2.280155
 O        -3.490099         2.021787         1.909569
 C        -4.491908         1.330551         1.062791
 C        -3.665461         0.591809        -0.087672
 C        -2.501467         0.063146         0.625882
 H         0.805843        -0.704216         0.867559
 H        -0.401995         2.484905         1.109451
 H        -1.525792         2.381581        -0.275043
 H        -0.370049         1.024552         2.761288
 H        -1.391033        -0.445558         2.756232
 H        -4.828127         0.505061         1.747213
 H        -5.033683         2.104384         0.605918
 H        -4.091034        -0.385564        -0.551051
 H        -3.434686         1.315189        -0.921193
 H        -2.905113        -0.835945         1.262731
