19
Iteration:  2608charge 0 multiplicity 1
 O         0.150006        -0.224140         0.196693
 C        -0.978803         0.395845         0.700317
 C        -1.301949         1.932412         0.696839
 C        -2.306595         1.196034         1.660968
 C        -1.107149         0.543134         2.376587
 O        -3.564511         1.694645         2.118183
 C        -4.237226         1.666863         0.816055
 C        -3.640560         0.556029        -0.119019
 C        -2.478088         0.052571         0.706003
 H         0.307195         0.238561        -0.601133
 H        -0.570626         2.654622         1.111956
 H        -1.603103         2.222721        -0.274839
 H        -0.294682         1.295357         2.673240
 H        -1.164064        -0.430904         2.842672
 H        -5.258210         1.500970         0.977713
 H        -4.278603         2.661678         0.281870
 H        -4.341008        -0.162144        -0.438324
 H        -3.397511         1.008666        -1.092725
 H        -2.827208        -0.845435         1.076723
