19
Iteration:  1495
 O         0.119560        -0.246122         0.102332
 C        -0.916440         0.398475         0.779546
 C        -1.316149         1.947395         0.592812
 C        -2.284960         1.271678         1.736257
 C        -1.076559         0.552013         2.396619
 O        -3.538225         1.655164         2.125427
 C        -4.380571         1.542444         0.803744
 C        -3.611043         0.653952        -0.270306
 C        -2.499431         0.075773         0.757039
 H         0.964496        -0.003695         0.398921
 H        -0.589914         2.716203         1.085043
 H        -1.669917         2.174185        -0.393004
 H        -0.223198         1.103834         2.943236
 H        -1.445244        -0.424144         2.860899
 H        -5.381610         1.372168         1.216759
 H        -4.198610         2.577695         0.529621
 H        -4.320518        -0.101675        -0.644941
 H        -3.235419         1.373850        -0.926514
 H        -2.847370        -0.846493         1.370889
