19
Iteration:  2320
 O         0.148222        -0.315705         0.206616
 C        -0.928937         0.394876         0.734300
 C        -1.243759         1.984793         0.746810
 C        -2.311139         1.264022         1.670402
 C        -1.064942         0.555123         2.322417
 O        -3.571669         1.705181         2.061394
 C        -4.444256         1.574150         0.865792
 C        -3.585626         0.716458        -0.180484
 C        -2.458113         0.078013         0.677361
 H        -0.089479        -0.544443        -0.743587
 H        -0.462388         2.555187         1.229206
 H        -1.566558         2.331453        -0.247402
 H        -0.297548         1.054671         2.750688
 H        -1.010753        -0.378553         2.914772
 H        -5.285540         1.043858         1.291595
 H        -4.764887         2.558856         0.588400
 H        -4.169788        -0.236766        -0.484121
 H        -3.156004         1.306204        -1.015685
 H        -2.644961        -0.935905         1.030922
