19
Iteration:  2198
 O         0.233987        -0.229812         0.107657
 C        -0.914133         0.416097         0.740398
 C        -1.421019         1.922249         0.728540
 C        -2.337704         1.155405         1.696714
 C        -1.109757         0.514016         2.412768
 O        -3.532684         1.731881         2.085685
 C        -4.252686         1.716405         0.818283
 C        -3.620025         0.590676        -0.159325
 C        -2.519244         0.005123         0.719604
 H         0.181829         0.306012        -0.770889
 H        -0.715718         2.618873         1.208298
 H        -1.664979         2.268784        -0.268774
 H        -0.529795         1.171077         2.954956
 H        -1.244414        -0.561826         2.804056
 H        -5.315433         1.621369         1.045645
 H        -4.099727         2.704855         0.428315
 H        -4.560878        -0.104320        -0.514930
 H        -3.116221         0.765221        -1.119942
 H        -2.720789        -0.873894         1.298776
