19
Iteration:  4200charge 0 multiplicity 1
 O         0.072707        -0.282270         0.226994
 C        -0.941790         0.439346         0.787131
 C        -1.144414         1.905822         0.607777
 C        -2.288242         1.348898         1.607214
 C        -1.059949         0.635034         2.314590
 O        -3.545973         1.886596         1.976521
 C        -4.515257         1.219264         1.041423
 C        -3.591681         0.630996        -0.148701
 C        -2.423568         0.194824         0.649339
 H        -0.136488        -1.251792         0.100879
 H        -0.309843         2.506314         0.952514
 H        -1.368037         2.337580        -0.387897
 H        -0.235584         1.260911         2.617119
 H        -1.206312        -0.154779         3.073876
 H        -5.046235         0.458936         1.672750
 H        -5.061342         1.953624         0.541167
 H        -4.079050        -0.122843        -0.847505
 H        -3.398411         1.368564        -0.917350
 H        -2.672241        -0.709533         1.268745
