19
Iteration:  4634
 O         0.209204        -0.343387         0.211752
 C        -0.792050         0.447149         0.783488
 C        -1.249561         1.955417         0.609312
 C        -2.275689         1.249649         1.589468
 C        -1.113838         0.571817         2.327353
 O        -3.464255         1.913125         1.951700
 C        -4.514596         1.477936         1.018387
 C        -3.694784         0.545090        -0.140933
 C        -2.511093         0.046533         0.768075
 H         0.276856        -0.023256        -0.755349
 H        -0.631106         2.726594         1.107971
 H        -1.523418         2.287122        -0.387118
 H        -0.451555         1.197588         2.876705
 H        -1.414803        -0.314582         2.890351
 H        -5.275137         0.835291         1.456245
 H        -5.093555         2.254648         0.465547
 H        -4.179372        -0.347406        -0.427796
 H        -3.596190         1.404320        -0.976921
 H        -2.864205        -0.863971         1.312147
