19
Iteration:   144charge 0 multiplicity 1
 O         0.060590        -0.285300         0.073535
 C        -0.944095         0.424963         0.742198
 C        -1.281283         1.974148         0.921784
 C        -2.329635         1.257319         1.794236
 C        -1.146928         0.439859         2.474553
 O        -3.568880         1.655901         2.041125
 C        -4.326749         1.596758         0.759679
 C        -3.539134         0.727330        -0.302519
 C        -2.422043         0.079918         0.616997
 H         0.800395         0.251661        -0.312254
 H        -0.419976         2.473120         1.468974
 H        -1.637627         2.499681         0.163330
 H        -0.259319         0.857511         3.076749
 H        -1.324061        -0.531097         2.816481
 H        -5.251188         1.046590         0.990632
 H        -4.477108         2.656913         0.378275
 H        -4.181396         0.020563        -0.772350
 H        -3.128391         1.434110        -1.039593
 H        -2.781426        -0.854827         0.949051
