19
Iteration:   606charge 0 multiplicity 1
 O         0.043286        -0.179037        -0.070208
 C        -0.896859         0.379620         0.868003
 C        -1.271093         1.855698         0.809731
 C        -2.298283         1.172921         1.752770
 C        -1.145194         0.482436         2.447559
 O        -3.528846         1.831002         1.991011
 C        -4.371680         1.523455         0.840584
 C        -3.570646         0.594949        -0.241874
 C        -2.417712         0.109785         0.719015
 H         0.821141         0.488661         0.014925
 H        -0.668833         2.627956         1.425426
 H        -1.725881         2.466410        -0.073198
 H        -0.360233         1.169881         2.975102
 H        -1.257395        -0.371335         3.110509
 H        -5.385537         1.186101         1.149890
 H        -4.569673         2.523326         0.326555
 H        -4.054615        -0.391694        -0.504807
 H        -3.241544         1.000527        -1.162361
 H        -2.797583        -0.766622         1.283942
