19
Iteration:   845
 O         0.013805        -0.085982         0.054369
 C        -0.952835         0.423708         0.770654
 C        -1.342087         1.909666         0.736059
 C        -2.305837         1.155584         1.747427
 C        -1.060719         0.446171         2.410850
 O        -3.589736         1.721359         2.013302
 C        -4.206042         1.722192         0.743277
 C        -3.593448         0.493987        -0.078813
 C        -2.418136         0.056335         0.710034
 H         0.950629         0.258095         0.248172
 H        -0.549553         2.619209         1.177477
 H        -1.779825         2.166284        -0.257468
 H        -0.217837         0.899880         3.039376
 H        -1.436765        -0.429892         2.864631
 H        -5.287854         1.585726         0.824609
 H        -3.977307         2.738268         0.272654
 H        -4.393472        -0.422008        -0.042855
 H        -3.501132         0.699786        -1.164699
 H        -2.713158        -0.976717         1.115280
