19
Iteration:  2439charge 0 multiplicity 1
 O         0.117312        -0.325937         0.251466
 C        -0.906373         0.425080         0.737167
 C        -1.119209         2.010625         0.702760
 C        -2.249932         1.256587         1.553730
 C        -1.145799         0.487239         2.303189
 O        -3.530338         1.803296         2.048489
 C        -4.473003         1.415175         0.978995
 C        -3.640633         0.700565        -0.181706
 C        -2.492807         0.154302         0.660147
 H         0.489088        -0.089557        -0.593809
 H        -0.351956         2.562496         1.314348
 H        -1.505521         2.495113        -0.266282
 H        -0.330879         0.908886         2.803883
 H        -1.396101        -0.451097         2.901473
 H        -5.217285         0.675464         1.366775
 H        -5.015648         2.255683         0.575802
 H        -4.170664        -0.204653        -0.546960
 H        -3.475961         1.405500        -0.896116
 H        -2.745843        -0.793806         1.129492
