19
Iteration:  1217
 O         0.106480        -0.213656         0.155532
 C        -0.958770         0.407512         0.793071
 C        -1.311308         1.901870         0.663105
 C        -2.310645         1.157901         1.724251
 C        -0.974101         0.526951         2.296384
 O        -3.636597         1.669174         2.041409
 C        -4.373694         1.672846         0.786846
 C        -3.600636         0.684476        -0.154592
 C        -2.458801         0.039019         0.756964
 H         0.937534         0.348823         0.318161
 H        -0.478710         2.477510         1.048402
 H        -1.590891         2.110442        -0.365340
 H        -0.225413         1.155527         2.846152
 H        -0.980925        -0.389887         2.894294
 H        -5.270360         1.197910         1.062631
 H        -4.450495         2.762064         0.498117
 H        -4.384861        -0.008877        -0.324370
 H        -3.284008         1.122012        -1.077913
 H        -2.608299        -0.961796         1.192062
