19
Iteration:  3290
 O         0.177463        -0.172597         0.190115
 C        -0.920162         0.366797         0.817106
 C        -1.151357         1.839283         0.630205
 C        -2.265060         1.314952         1.624125
 C        -1.116347         0.525947         2.386122
 O        -3.514651         1.875937         1.943962
 C        -4.490311         1.306671         1.043371
 C        -3.612275         0.758199        -0.193277
 C        -2.538220         0.124636         0.619379
 H        -0.080057        -1.107588         0.113510
 H        -0.408947         2.550280         1.180530
 H        -1.347627         2.263947        -0.360920
 H        -0.262168         0.971266         2.923959
 H        -1.461118        -0.342088         3.019831
 H        -4.997884         0.524560         1.704471
 H        -5.186065         2.080576         0.655456
 H        -4.193485         0.125339        -0.808812
 H        -3.175981         1.475504        -0.958766
 H        -3.025046        -0.825677         0.893890
