19
Iteration:  1613charge 0 multiplicity 1
 O         0.080456        -0.227255         0.125086
 C        -0.964655         0.412817         0.737392
 C        -1.366749         1.893626         0.655603
 C        -2.342480         1.173291         1.748343
 C        -1.058028         0.593401         2.325306
 O        -3.582948         1.685172         2.126735
 C        -4.248957         1.699487         0.794307
 C        -3.533667         0.624169        -0.118977
 C        -2.456145        -0.049725         0.652637
 H         0.845486         0.434380         0.269953
 H        -0.717252         2.714280         1.064980
 H        -1.862634         2.183702        -0.224744
 H        -0.342318         1.214428         2.958064
 H        -1.057838        -0.512278         2.799002
 H        -5.422362         1.401830         0.904739
 H        -4.334806         2.791924         0.407842
 H        -4.358073        -0.063244        -0.335782
 H        -3.094427         0.999638        -1.070674
 H        -2.636531        -0.870517         1.298703
