19
Iteration:  3131
 O         0.054663        -0.251237         0.059622
 C        -0.868227         0.460572         0.844032
 C        -1.206493         1.991267         0.693929
 C        -2.275144         1.273476         1.668239
 C        -1.074712         0.572988         2.416524
 O        -3.492526         1.735876         2.057126
 C        -4.470323         1.529452         0.746133
 C        -3.658413         0.568966        -0.160118
 C        -2.458907         0.087099         0.719870
 H         0.466334        -0.952460         0.602403
 H        -0.447345         2.691458         0.961934
 H        -1.613990         2.264386        -0.258829
 H        -0.280530         1.125984         3.061223
 H        -1.329291        -0.382298         2.875033
 H        -5.170661         0.921239         1.275723
 H        -4.610282         2.535867         0.484656
 H        -4.320237        -0.243489        -0.489087
 H        -3.430455         1.108695        -1.104474
 H        -2.775194        -0.828988         1.210838
