19
Iteration:  1627
 O         0.105119        -0.263484         0.124020
 C        -0.914860         0.504258         0.752427
 C        -1.355409         1.961944         0.646499
 C        -2.354021         1.157844         1.716982
 C        -1.065774         0.488942         2.303513
 O        -3.592215         1.697304         2.066590
 C        -4.317746         1.663546         0.846706
 C        -3.606257         0.591433        -0.145199
 C        -2.429541         0.039789         0.819284
 H         0.961525         0.050399         0.259550
 H        -0.632860         2.612050         1.124532
 H        -1.647831         2.355692        -0.321791
 H        -0.317233         1.316789         2.644979
 H        -1.240225        -0.460386         2.785699
 H        -5.333751         1.453704         1.139566
 H        -4.092473         2.646723         0.301710
 H        -4.197395        -0.182219        -0.671357
 H        -3.257389         1.209783        -0.899510
 H        -2.598510        -1.049111         0.945328
