19
Iteration:  4809charge 0 multiplicity 1
 O         0.162570        -0.239738         0.220653
 C        -0.923618         0.409095         0.700391
 C        -1.197601         1.904716         0.579229
 C        -2.251893         1.340487         1.614255
 C        -1.067241         0.573170         2.289280
 O        -3.534143         1.807878         2.118247
 C        -4.383345         1.552240         0.801461
 C        -3.792637         0.421716         0.014970
 C        -2.508006         0.080394         0.747122
 H         0.600600         0.216585        -0.568475
 H        -0.438203         2.580556         1.110470
 H        -1.454077         2.290042        -0.391412
 H        -0.365933         1.197058         2.844571
 H        -1.152534        -0.276894         2.965523
 H        -5.428379         1.291609         1.059705
 H        -4.405700         2.546201         0.127486
 H        -4.277462        -0.451392        -0.152793
 H        -3.531745         0.707950        -1.062223
 H        -2.774428        -0.779693         1.327812
