19
Iteration:  2698charge 0 multiplicity 1
 O         0.161770        -0.338612         0.189977
 C        -0.919805         0.403912         0.761308
 C        -1.149523         1.923817         0.645349
 C        -2.301345         1.288855         1.638517
 C        -1.203436         0.542105         2.343001
 O        -3.537500         1.853839         2.041465
 C        -4.461554         1.374019         0.990937
 C        -3.547643         0.741224        -0.176864
 C        -2.446705         0.142287         0.677657
 H         0.082728        -0.140620        -0.770417
 H        -0.441913         2.628664         1.000955
 H        -1.594186         2.308642        -0.249645
 H        -0.466644         0.916492         3.203645
 H        -1.473955        -0.503300         2.618236
 H        -5.185326         0.655433         1.441283
 H        -5.289246         2.078916         0.746185
 H        -4.007440        -0.064653        -0.789986
 H        -3.247003         1.485142        -0.970782
 H        -2.662923        -0.804336         1.149736
