19
Iteration:  1073charge 0 multiplicity 1
 O         0.120760        -0.297813         0.164770
 C        -0.874322         0.412557         0.741714
 C        -1.223804         1.903113         0.729028
 C        -2.289025         1.280798         1.704815
 C        -1.088711         0.500485         2.318362
 O        -3.644688         1.777137         1.989721
 C        -4.405653         1.538428         0.901483
 C        -3.636819         0.615480        -0.086795
 C        -2.431601         0.090600         0.629610
 H         0.892250         0.332094         0.146788
 H        -0.554605         2.606951         1.359247
 H        -1.606549         2.425150        -0.109088
 H        -0.190604         1.249685         2.681441
 H        -1.185320        -0.460926         2.807922
 H        -5.496559         1.329793         1.195811
 H        -4.471285         2.437230         0.224596
 H        -4.362907        -0.162260        -0.529922
 H        -3.236941         1.180956        -0.870283
 H        -2.675180        -0.917552         0.999315
