19
Iteration:  2164charge 0 multiplicity 1
 O         0.108685        -0.214703         0.215109
 C        -0.957803         0.477061         0.805801
 C        -1.223127         1.915829         0.665947
 C        -2.344600         1.219632         1.737585
 C        -1.022032         0.456241         2.342678
 O        -3.546288         1.725478         2.079779
 C        -4.384178         1.605414         0.848134
 C        -3.569894         0.617621        -0.230165
 C        -2.489364         0.094381         0.678462
 H         0.062423        -0.206746        -0.779759
 H        -0.420271         2.587901         1.093523
 H        -1.595714         2.288503        -0.337305
 H        -0.202574         0.941075         2.829466
 H        -1.138633        -0.621037         2.770199
 H        -5.302023         1.029673         1.055725
 H        -4.522247         2.597131         0.485944
 H        -4.454760        -0.205324        -0.501698
 H        -3.353092         1.327318        -1.136449
 H        -2.841761        -0.749473         1.267362
