19
Iteration:   626
 O         0.034430        -0.188758         0.052460
 C        -0.964862         0.427692         0.740648
 C        -1.230635         1.868935         0.717354
 C        -2.309088         1.279338         1.727267
 C        -1.181508         0.564392         2.472524
 O        -3.497032         1.753217         2.051067
 C        -4.351584         1.469091         0.859226
 C        -3.538932         0.672644        -0.185714
 C        -2.458102        -0.017135         0.652767
 H         0.863494         0.243975         0.283491
 H        -0.459791         2.571052         1.067739
 H        -1.274462         2.269467        -0.395702
 H        -0.379527         1.154784         3.097725
 H        -1.458323        -0.352532         3.076136
 H        -5.170424         0.834160         1.232867
 H        -4.857851         2.390139         0.462920
 H        -4.361884         0.143890        -0.738979
 H        -3.104350         1.408751        -0.938339
 H        -2.647839        -1.082331         1.020508
