19
Iteration:  2311
 O         0.180110        -0.289527         0.174521
 C        -0.893568         0.431202         0.748773
 C        -1.236546         1.892572         0.704810
 C        -2.312603         1.212268         1.680254
 C        -1.107747         0.568621         2.289674
 O        -3.602715         1.718612         2.085093
 C        -4.395982         1.572589         0.930463
 C        -3.586656         0.684640        -0.171686
 C        -2.447365         0.079547         0.705475
 H        -0.011450        -0.577702        -0.760780
 H        -0.489534         2.474784         1.184856
 H        -1.635987         2.513632        -0.069009
 H        -0.412797         1.243193         2.722834
 H        -1.429813        -0.298763         2.775751
 H        -5.393325         1.153595         1.059942
 H        -4.511913         2.547903         0.386223
 H        -4.328497         0.061228        -0.774159
 H        -3.122446         1.233378        -1.083742
 H        -2.796459        -0.724022         1.396470
