19
Iteration:  1608
 O         0.075682        -0.194142         0.118287
 C        -0.966780         0.353780         0.742358
 C        -1.394912         1.884404         0.666807
 C        -2.300907         1.198770         1.731149
 C        -1.036627         0.589841         2.396251
 O        -3.554884         1.661847         2.148729
 C        -4.250860         1.715383         0.763963
 C        -3.542078         0.612464        -0.137705
 C        -2.459524        -0.022484         0.646389
 H         0.791782         0.429611         0.175368
 H        -0.728745         2.645208         1.047515
 H        -1.988744         2.309646        -0.249109
 H        -0.414292         1.310822         2.876233
 H        -1.285070        -0.345707         2.807246
 H        -5.197770         1.330190         0.868380
 H        -4.216046         2.678842         0.370798
 H        -4.366911        -0.094619        -0.290753
 H        -3.224666         0.971655        -1.156019
 H        -2.946281        -0.919267         1.207218
