19
Iteration:  3407charge 0 multiplicity 1
 O         0.044102        -0.183620         0.102660
 C        -0.949249         0.464688         0.812873
 C        -1.175990         1.972734         0.649077
 C        -2.367615         1.138835         1.775239
 C        -1.011720         0.565058         2.438671
 O        -3.557968         1.747732         2.048120
 C        -4.371414         1.625897         0.802293
 C        -3.602464         0.520427        -0.218050
 C        -2.464055         0.069394         0.703809
 H        -0.003960        -1.212594         0.009612
 H        -0.448325         2.605843         1.054847
 H        -1.506135         2.403397        -0.252889
 H        -0.401623         1.351225         2.865447
 H        -0.892508        -0.382241         3.055200
 H        -5.346749         1.253886         1.176914
 H        -4.376050         2.582383         0.261167
 H        -4.298263        -0.245102        -0.680777
 H        -3.256564         1.066837        -1.083329
 H        -2.605756        -0.933956         1.252339
