19
Iteration:  2082charge 0 multiplicity 1
 O         0.192067        -0.312930         0.191374
 C        -0.929927         0.360109         0.765882
 C        -1.220324         1.931122         0.708724
 C        -2.279194         1.280860         1.661206
 C        -1.141132         0.427352         2.352857
 O        -3.544969         1.952310         1.931892
 C        -4.429963         1.298287         1.052626
 C        -3.572881         0.774568        -0.173349
 C        -2.497832         0.136357         0.644075
 H         0.381739         0.081929        -0.737531
 H        -0.549712         2.594829         1.262083
 H        -1.568404         2.360760        -0.214476
 H        -0.388475         1.053586         2.925000
 H        -1.673574        -0.350148         2.871770
 H        -5.070506         0.441959         1.325105
 H        -5.203835         2.112347         0.817888
 H        -4.216816         0.131555        -0.862164
 H        -3.175020         1.565061        -0.794089
 H        -2.692218        -0.928871         0.928437
