19
Iteration:  4065charge 0 multiplicity 1
 O         0.213847        -0.198839         0.156993
 C        -0.979243         0.410233         0.708978
 C        -1.359946         1.908873         0.524267
 C        -2.277191         1.271904         1.701466
 C        -1.008018         0.708815         2.280709
 O        -3.642113         1.663949         2.130015
 C        -4.269607         1.674765         0.817221
 C        -3.696611         0.499419        -0.062101
 C        -2.475594        -0.075662         0.781092
 H         0.423592        -0.834727         0.796474
 H        -0.675000         2.684551         0.929697
 H        -1.667475         2.370059        -0.394126
 H        -0.350329         1.590865         2.496228
 H        -1.023033        -0.160852         3.019676
 H        -5.298016         1.659105         0.906720
 H        -3.986709         2.582866         0.266809
 H        -4.344784        -0.199033        -0.277186
 H        -3.400954         0.784105        -1.053463
 H        -2.697912        -0.908057         1.334840
