19
Iteration:  1621charge 0 multiplicity 1
 O         0.101787        -0.259122         0.124509
 C        -0.963170         0.506979         0.752473
 C        -1.353214         1.919633         0.655014
 C        -2.357716         1.148846         1.732394
 C        -1.080084         0.532048         2.283352
 O        -3.609330         1.703274         2.080281
 C        -4.282180         1.687576         0.836521
 C        -3.571839         0.616582        -0.124276
 C        -2.424409        -0.019357         0.760160
 H         0.959471         0.232638         0.273344
 H        -0.651892         2.663856         1.078948
 H        -1.722116         2.222469        -0.379943
 H        -0.368753         1.163970         2.726368
 H        -1.011868        -0.460578         2.803063
 H        -5.353055         1.486711         1.112140
 H        -4.198005         2.678305         0.427704
 H        -4.244571        -0.122174        -0.566908
 H        -3.108607         1.163621        -1.040338
 H        -2.463211        -1.055303         1.180413
