19
Iteration:   349charge 0 multiplicity 1
 O         0.168375        -0.270934         0.156471
 C        -0.883054         0.403539         0.787367
 C        -1.196636         1.957680         0.867055
 C        -2.230925         1.217091         1.693571
 C        -1.181202         0.360685         2.428016
 O        -3.479742         1.877029         1.911559
 C        -4.474859         1.391899         0.950096
 C        -3.722645         0.701607        -0.287032
 C        -2.476567         0.223305         0.617867
 H         0.792178         0.385278        -0.375312
 H        -0.596352         2.756834         1.427382
 H        -1.486424         2.240500        -0.070136
 H        -0.240213         0.798974         2.905437
 H        -1.508451        -0.515929         2.903768
 H        -5.238196         0.647566         1.275910
 H        -4.876433         2.276046         0.628091
 H        -4.207539        -0.143550        -0.647296
 H        -3.607555         1.410610        -1.062905
 H        -2.719481        -0.826812         0.878587
