19
Iteration:  4843charge 0 multiplicity 1
 O         0.103381        -0.292804         0.179988
 C        -0.894293         0.451446         0.768094
 C        -1.361468         1.956331         0.604560
 C        -2.243750         1.252749         1.661034
 C        -1.039629         0.621527         2.355398
 O        -3.499402         1.823562         2.016345
 C        -4.381529         1.528056         0.838058
 C        -3.657194         0.518843        -0.025672
 C        -2.411691         0.043257         0.703279
 H        -0.182668        -0.800285        -0.583871
 H        -0.748372         2.687791         1.144174
 H        -1.744031         2.306685        -0.363359
 H        -0.432399         1.405230         2.762419
 H        -1.218050        -0.273589         2.892524
 H        -5.313558         1.075052         1.259807
 H        -4.619206         2.592420         0.386913
 H        -4.251386        -0.293622        -0.162339
 H        -3.334171         0.926737        -1.046260
 H        -2.602085        -0.788145         1.350417
