19
Iteration:  3785
 O         0.278737        -0.305915         0.266796
 C        -0.871891         0.387301         0.719421
 C        -1.428806         1.951056         0.577085
 C        -2.258616         1.263453         1.644497
 C        -1.056132         0.622988         2.315531
 O        -3.525193         1.742592         2.061619
 C        -4.363359         1.625936         0.842105
 C        -3.729108         0.539002        -0.082447
 C        -2.515993         0.033275         0.758220
 H         0.471089         0.125412        -0.603333
 H        -0.689638         2.600946         1.058615
 H        -1.829757         2.383035        -0.305922
 H        -0.396242         1.400308         2.703903
 H        -1.235041        -0.395298         2.832976
 H        -5.468668         1.514332         1.094403
 H        -4.300973         2.629295         0.377697
 H        -4.360193        -0.398249        -0.250841
 H        -3.435499         0.748511        -1.112458
 H        -2.782524        -0.881994         1.301945
