19
Iteration:  3710
 O         0.068330        -0.263463         0.188073
 C        -0.973899         0.463823         0.711659
 C        -1.322607         1.963047         0.686472
 C        -2.280130         1.253251         1.733068
 C        -0.910278         0.607923         2.362372
 O        -3.624121         1.727009         2.093191
 C        -4.309028         1.649713         0.689490
 C        -3.620371         0.450637        -0.141454
 C        -2.453545         0.048221         0.841832
 H        -0.010925        -0.193569        -0.779819
 H        -0.468866         2.573941         1.128225
 H        -1.737334         2.472768        -0.199761
 H        -0.169064         1.309506         2.813833
 H        -1.135762        -0.475836         2.657427
 H        -5.383996         1.421167         0.853929
 H        -4.064271         2.525390         0.089946
 H        -4.318998        -0.424177        -0.306802
 H        -3.422878         0.778176        -1.073682
 H        -2.624042        -0.849670         1.362958
