19
Iteration:  2203
 O         0.193077        -0.205253         0.096321
 C        -0.914703         0.438257         0.794535
 C        -1.377814         1.910924         0.713124
 C        -2.299201         1.145128         1.685814
 C        -1.132748         0.500934         2.396925
 O        -3.539248         1.722812         2.106884
 C        -4.234358         1.745191         0.808346
 C        -3.678602         0.556972        -0.206021
 C        -2.487889         0.009110         0.724166
 H         0.275505         0.219704        -0.736997
 H        -0.698926         2.617858         1.182367
 H        -1.780139         2.172958        -0.290010
 H        -0.609290         1.192474         3.229608
 H        -1.138239        -0.464053         2.842518
 H        -5.303947         1.654643         1.069209
 H        -4.136954         2.785462         0.337308
 H        -4.407213        -0.171653        -0.264168
 H        -3.113429         0.851940        -1.117398
 H        -2.706809        -1.028750         1.134277
