19
Iteration:  1876charge 0 multiplicity 1
 O         0.033029        -0.272316         0.113681
 C        -0.941754         0.449642         0.781288
 C        -1.325645         1.933421         0.695933
 C        -2.309300         1.227384         1.683440
 C        -1.045576         0.496156         2.419448
 O        -3.521973         1.727716         2.057262
 C        -4.335017         1.609055         0.819371
 C        -3.618001         0.568995        -0.156497
 C        -2.414528         0.091387         0.675544
 H         0.762167         0.281937        -0.072737
 H        -0.749492         2.706744         1.370416
 H        -1.753317         2.174419        -0.316363
 H        -0.157288         1.141145         2.859349
 H        -1.128910        -0.452614         2.921369
 H        -5.386472         1.474491         1.101732
 H        -4.319045         2.619149         0.381454
 H        -4.348120        -0.259308        -0.468149
 H        -3.274191         1.189183        -1.001933
 H        -2.613072        -0.886329         1.104164
