19
Iteration:  1230
 O         0.092815        -0.279273         0.125203
 C        -0.959048         0.497679         0.723874
 C        -1.240003         1.941520         0.616626
 C        -2.368721         1.163371         1.819630
 C        -1.084261         0.539336         2.373233
 O        -3.546714         1.712048         2.126377
 C        -4.302761         1.557525         0.790722
 C        -3.575604         0.610278        -0.205582
 C        -2.517107         0.094433         0.750882
 H         0.835331         0.296993         0.113788
 H        -0.598777         2.691581         1.052779
 H        -1.769708         2.482698        -0.248494
 H        -0.479221         1.208977         2.806755
 H        -1.079429        -0.524060         2.728694
 H        -5.255844         1.222904         1.015264
 H        -4.454687         2.566134         0.331091
 H        -4.092590        -0.178432        -0.635432
 H        -3.123069         1.194022        -1.066353
 H        -2.818654        -0.947705         1.086796
