19
Iteration:  1124charge 0 multiplicity 1
 O         0.054193        -0.224186         0.057376
 C        -0.981021         0.425514         0.752192
 C        -1.273988         1.924129         0.716764
 C        -2.353787         1.190902         1.781745
 C        -1.097542         0.559960         2.385173
 O        -3.591868         1.722760         2.051078
 C        -4.337319         1.681578         0.738730
 C        -3.526959         0.574476        -0.100556
 C        -2.409669        -0.009055         0.746405
 H         0.696718         0.457202        -0.042955
 H        -0.422273         2.448757         1.105036
 H        -1.581834         2.277745        -0.281756
 H        -0.369414         1.093083         2.958593
 H        -1.194296        -0.411391         2.957771
 H        -5.381023         1.481515         1.042526
 H        -4.217001         2.660438         0.298641
 H        -4.152134        -0.260590        -0.380835
 H        -3.062014         0.918654        -1.070845
 H        -2.624549        -1.021871         1.070464
