19
Iteration:  2965
 O         0.001024        -0.190265         0.092138
 C        -0.965923         0.463103         0.788008
 C        -1.215048         1.947922         0.630535
 C        -2.276527         1.335117         1.775726
 C        -1.108645         0.564272         2.404799
 O        -3.526431         1.698221         2.022974
 C        -4.316979         1.533011         0.891945
 C        -3.554015         0.572279        -0.213717
 C        -2.457310         0.033267         0.698039
 H         0.034511        -1.182161         0.269743
 H        -0.477118         2.650278         1.046170
 H        -1.539357         2.332827        -0.340846
 H        -0.361295         1.286179         2.928849
 H        -1.269626        -0.370019         3.058753
 H        -5.220665         0.875221         1.145327
 H        -4.453205         2.527570         0.491766
 H        -4.254085        -0.185768        -0.608568
 H        -3.277665         1.228171        -1.114772
 H        -2.706926        -0.876761         1.212173
