19
Iteration:  1203charge 0 multiplicity 1
 O         0.163365        -0.196330         0.098117
 C        -0.886242         0.359597         0.811871
 C        -1.341047         1.860142         0.696654
 C        -2.313000         1.275032         1.634739
 C        -1.037775         0.514013         2.381993
 O        -3.594279         1.660555         2.066879
 C        -4.352895         1.708642         0.845540
 C        -3.649839         0.607311        -0.125373
 C        -2.450372         0.001701         0.663920
 H         0.929709         0.199543         0.437418
 H        -0.821790         2.724735         1.188882
 H        -1.826091         2.201221        -0.159618
 H        -0.116054         1.285850         2.653676
 H        -1.369245        -0.308465         2.995142
 H        -5.506412         1.684307         1.052035
 H        -4.278854         2.677398         0.299313
 H        -4.222661        -0.305878        -0.556193
 H        -3.343352         1.127776        -1.005400
 H        -2.841386        -0.846693         1.177857
