19
Iteration:   982charge 0 multiplicity 1
 O         0.041969        -0.353951         0.156317
 C        -0.936768         0.380350         0.720801
 C        -1.193635         1.982865         0.776793
 C        -2.251106         1.362284         1.669286
 C        -1.147129         0.451887         2.339498
 O        -3.577893         1.950906         2.010106
 C        -4.457685         1.270322         0.971982
 C        -3.554581         0.687425        -0.183347
 C        -2.360189         0.175757         0.557179
 H         0.922924        -0.076851         0.172364
 H        -0.601973         2.618169         1.324588
 H        -1.579404         2.496731        -0.159029
 H        -0.310090         0.967823         2.886102
 H        -1.563507        -0.510064         2.962029
 H        -4.977064         0.409275         1.486774
 H        -5.179766         2.028277         0.647301
 H        -4.115370        -0.083203        -0.582137
 H        -3.376281         1.434152        -1.012544
 H        -2.498769        -0.766126         1.016044
