19
Iteration:   315charge 0 multiplicity 1
 O         0.131412        -0.169926         0.126799
 C        -0.968233         0.372554         0.748710
 C        -1.228734         1.911671         0.785416
 C        -2.325212         1.277819         1.730515
 C        -1.197325         0.432959         2.337845
 O        -3.548196         1.863819         2.072014
 C        -4.391187         1.362761         0.840601
 C        -3.413273         0.732299        -0.215044
 C        -2.500780         0.054185         0.714825
 H        -0.006511        -0.396148        -0.877377
 H        -0.580726         2.618666         1.356829
 H        -1.379041         2.330970        -0.179568
 H        -0.277243         0.872803         2.811491
 H        -1.594180        -0.422086         2.871205
 H        -5.308490         0.813240         1.180288
 H        -4.747287         2.304731         0.527640
 H        -3.979406         0.218425        -1.004840
 H        -2.908818         1.538723        -0.695726
 H        -2.915303        -0.914155         1.156916
