19
Iteration:  3557
 O         0.035837        -0.387219         0.112368
 C        -0.848004         0.431946         0.751856
 C        -1.192281         2.001959         0.695747
 C        -2.303258         1.350435         1.679988
 C        -1.074767         0.549854         2.278781
 O        -3.620781         1.894122         1.967768
 C        -4.531461         1.305359         0.898639
 C        -3.541898         0.732849        -0.088721
 C        -2.383578         0.108205         0.728500
 H         0.746398        -0.834465         0.705938
 H        -0.370030         2.597852         1.165899
 H        -1.577298         2.198834        -0.340646
 H        -0.227358         1.074272         2.647999
 H        -1.371119        -0.283157         2.920434
 H        -5.136254         0.530048         1.412371
 H        -5.253239         2.108458         0.675102
 H        -3.909086        -0.120778        -0.774295
 H        -3.085231         1.454339        -0.661497
 H        -2.625936        -0.800141         1.256466
