19
Iteration:  4117charge 0 multiplicity 1
 O         0.193576        -0.185533         0.066013
 C        -0.939619         0.386621         0.765071
 C        -1.254113         1.895062         0.651452
 C        -2.270110         1.304314         1.721285
 C        -1.054560         0.621894         2.291215
 O        -3.550998         1.819431         1.990681
 C        -4.412582         1.527958         0.818413
 C        -3.718881         0.454316        -0.011812
 C        -2.474501         0.078708         0.791748
 H         0.588389        -0.798422         0.643665
 H        -0.464966         2.648624         1.036599
 H        -1.706036         2.287966        -0.277340
 H        -0.232266         1.237504         2.775054
 H        -1.323503        -0.319062         2.810516
 H        -5.442210         1.445589         1.252708
 H        -4.519450         2.378976         0.080755
 H        -4.371404        -0.469857        -0.331954
 H        -3.288714         0.888783        -0.934613
 H        -2.692013        -0.867631         1.340414
