19
Iteration:  1268charge 0 multiplicity 1
 O        -0.009201        -0.278767         0.009185
 C        -0.889874         0.456030         0.805442
 C        -1.114285         1.965836         0.740727
 C        -2.269723         1.198966         1.726394
 C        -1.128505         0.544233         2.453073
 O        -3.573209         1.746399         1.972978
 C        -4.413620         1.448785         0.798296
 C        -3.585254         0.640316        -0.142586
 C        -2.446923         0.164587         0.731004
 H         0.904333         0.149434        -0.024198
 H        -0.407211         2.634729         1.316387
 H        -1.560844         2.341543        -0.142518
 H        -0.301738         1.174817         3.042935
 H        -1.321017        -0.405948         2.921678
 H        -5.385839         0.911470         1.256498
 H        -4.783087         2.423707         0.426174
 H        -4.306289        -0.267145        -0.395806
 H        -3.326252         1.072145        -1.107782
 H        -2.683923        -0.749050         1.272890
