19
Iteration:  1100
 O         0.084092        -0.234736         0.083909
 C        -0.897426         0.394933         0.877237
 C        -1.352287         1.950693         0.619476
 C        -2.280841         1.235148         1.684161
 C        -1.172358         0.546641         2.432306
 O        -3.454445         1.690296         2.117299
 C        -4.280685         1.587330         0.788110
 C        -3.584512         0.611318        -0.231486
 C        -2.529377         0.062226         0.736496
 H         0.752244         0.511625        -0.044248
 H        -0.761829         2.743293         1.074053
 H        -1.746422         2.154492        -0.445878
 H        -0.532686         1.065874         3.030107
 H        -1.383212        -0.443884         2.969564
 H        -5.224435         1.205793         1.115515
 H        -4.361004         2.605908         0.381049
 H        -4.301252        -0.122167        -0.527969
 H        -3.051004         0.977910        -1.209877
 H        -2.957630        -0.858548         1.202241
