19
Iteration:  3423
 O         0.149488        -0.215818         0.094604
 C        -0.887554         0.444205         0.774412
 C        -1.283276         1.904283         0.735608
 C        -2.273865         1.277084         1.694368
 C        -1.097771         0.596447         2.352754
 O        -3.651833         1.628119         2.060997
 C        -4.276107         1.684022         0.763800
 C        -3.632080         0.554469        -0.110088
 C        -2.425327         0.064699         0.741245
 H        -0.336124        -1.014280        -0.194527
 H        -0.567963         2.681190         1.149019
 H        -1.695296         2.225763        -0.281441
 H        -0.282264         1.215451         2.838939
 H        -1.366460        -0.293607         2.932235
 H        -5.366422         1.665943         0.904256
 H        -4.246537         2.718558         0.339142
 H        -4.217212        -0.341291        -0.035299
 H        -3.438265         0.918151        -1.156781
 H        -2.595003        -0.880445         1.227235
