19
Iteration:   486
 O         0.161588        -0.198754         0.176013
 C        -0.891342         0.458498         0.751024
 C        -1.236566         1.936303         0.813555
 C        -2.287960         1.202376         1.719393
 C        -1.108203         0.428119         2.313375
 O        -3.555166         1.765957         1.988838
 C        -4.438467         1.651916         0.840086
 C        -3.640464         0.481863        -0.133166
 C        -2.438084         0.091848         0.665428
 H         0.477072         0.161440        -0.630171
 H        -0.454182         2.645686         1.170945
 H        -1.824980         2.493062        -0.059254
 H        -0.399299         1.063803         2.913168
 H        -1.420699        -0.554436         2.779326
 H        -5.405820         1.252183         1.211782
 H        -4.484265         2.688375         0.352836
 H        -4.451070        -0.217369        -0.505239
 H        -3.299989         1.063442        -0.997618
 H        -2.607387        -0.891164         1.130497
