19
Iteration:  3390
 O         0.059211        -0.178952         0.055564
 C        -0.949042         0.440229         0.776415
 C        -1.244233         1.880132         0.704151
 C        -2.294978         1.234577         1.713412
 C        -1.123380         0.578254         2.360287
 O        -3.490311         1.833870         2.044672
 C        -4.383555         1.439940         0.795177
 C        -3.531026         0.667341        -0.162103
 C        -2.487051         0.035716         0.793341
 H         0.094131        -1.035151         0.613853
 H        -0.521882         2.552883         1.279126
 H        -1.627489         2.255431        -0.285781
 H        -0.327910         1.186348         2.885130
 H        -1.418520        -0.354828         2.831702
 H        -5.172372         0.746070         1.129453
 H        -4.621365         2.454286         0.436067
 H        -4.149555        -0.062849        -0.663569
 H        -3.019337         1.204705        -1.016347
 H        -2.842258        -0.935258         1.051383
