19
Iteration:  1192
 O         0.206616        -0.217557         0.044984
 C        -0.919611         0.405729         0.781775
 C        -1.351827         1.950273         0.674163
 C        -2.313003         1.195665         1.696850
 C        -1.189380         0.548388         2.390705
 O        -3.525408         1.696314         2.108097
 C        -4.275703         1.668265         0.816933
 C        -3.672157         0.517119        -0.174350
 C        -2.497086         0.059001         0.699219
 H         1.018878         0.091117         0.483525
 H        -0.645641         2.673065         1.142897
 H        -1.705704         2.258701        -0.275824
 H        -0.498267         1.217141         3.091777
 H        -1.292219        -0.373844         2.947141
 H        -5.363733         1.620663         1.171677
 H        -3.984604         2.632898         0.389794
 H        -4.397450        -0.314702        -0.493101
 H        -3.417906         1.093654        -1.036609
 H        -2.653818        -0.904079         1.137560
