19
Iteration:  2210charge 0 multiplicity 1
 O         0.117441        -0.162504         0.112125
 C        -0.885243         0.450086         0.830529
 C        -1.300486         1.880793         0.683920
 C        -2.313708         1.147948         1.712910
 C        -1.134331         0.496484         2.393926
 O        -3.537283         1.696551         2.106940
 C        -4.222951         1.782274         0.777342
 C        -3.689117         0.545346        -0.188431
 C        -2.450457         0.003081         0.716268
 H         0.332517         0.193993        -0.724217
 H        -0.696911         2.674549         1.082456
 H        -1.851217         2.163710        -0.164457
 H        -0.589675         1.137147         3.022706
 H        -1.302056        -0.520090         2.914426
 H        -5.259608         1.608328         1.014081
 H        -4.088187         2.736973         0.264785
 H        -4.363207        -0.438772        -0.169055
 H        -3.545695         1.044532        -1.191795
 H        -2.623449        -1.025494         0.971948
