19
Iteration:  1033
 O         0.085565        -0.298023        -0.004170
 C        -0.981096         0.396857         0.758579
 C        -1.193062         1.931635         0.729929
 C        -2.347384         1.304921         1.722190
 C        -1.229288         0.546215         2.438923
 O        -3.557308         1.901030         2.023203
 C        -4.330719         1.353759         0.935611
 C        -3.517057         0.636169        -0.148013
 C        -2.420627         0.149306         0.632161
 H         0.957989        -0.165665         0.400981
 H        -0.319808         2.542215         1.098035
 H        -1.627825         2.240743        -0.245579
 H        -0.509753         0.975754         3.058758
 H        -1.525958        -0.388665         2.865635
 H        -5.017730         0.650829         1.379122
 H        -4.870257         2.210494         0.507645
 H        -4.017176        -0.231140        -0.630809
 H        -3.359105         1.383449        -0.983823
 H        -2.600667        -0.890881         1.043081
