19
Iteration:  3072charge 0 multiplicity 1
 O         0.146664        -0.228861         0.160078
 C        -0.908012         0.407818         0.858988
 C        -1.146891         1.887548         0.714705
 C        -2.300357         1.303528         1.647450
 C        -1.086506         0.513404         2.363339
 O        -3.525405         1.926113         1.840704
 C        -4.458911         1.253679         1.049444
 C        -3.618375         0.731601        -0.174630
 C        -2.496032         0.172923         0.645910
 H         0.001410        -1.211391        -0.063416
 H        -0.277404         2.538408         1.008656
 H        -1.629554         2.055925        -0.273069
 H        -0.298598         1.014237         2.779272
 H        -1.406177        -0.381950         2.898153
 H        -5.042860         0.587347         1.549455
 H        -5.267136         2.045915         0.877848
 H        -4.148505        -0.094620        -0.710069
 H        -3.565634         1.684487        -0.778303
 H        -2.781534        -0.830921         1.067316
