19
Iteration:  2438
 O         0.117811        -0.327429         0.254949
 C        -0.907666         0.424439         0.733126
 C        -1.125450         2.023137         0.702032
 C        -2.244870         1.257012         1.551801
 C        -1.155316         0.475339         2.302774
 O        -3.527389         1.810296         2.046866
 C        -4.477776         1.415063         0.987313
 C        -3.636941         0.693477        -0.181507
 C        -2.489185         0.149809         0.658013
 H         0.517870        -0.076587        -0.608728
 H        -0.347767         2.531796         1.310663
 H        -1.502903         2.503226        -0.242118
 H        -0.319083         0.922059         2.791418
 H        -1.404968        -0.393938         2.866538
 H        -5.230864         0.662477         1.367568
 H        -5.000635         2.260302         0.579309
 H        -4.134964        -0.186528        -0.541492
 H        -3.458137         1.396394        -0.877383
 H        -2.781462        -0.807981         1.122025
