19
Iteration:  2603charge 0 multiplicity 1
 O         0.172989        -0.245969         0.203866
 C        -0.940253         0.392052         0.708525
 C        -1.312144         1.922093         0.691799
 C        -2.293304         1.195420         1.716603
 C        -1.101491         0.575896         2.312862
 O        -3.596039         1.707740         2.106259
 C        -4.244380         1.650973         0.802839
 C        -3.638368         0.592026        -0.092931
 C        -2.500146         0.018783         0.680788
 H         0.256323         0.257364        -0.677350
 H        -0.627163         2.676094         1.139157
 H        -1.750540         2.374759        -0.295462
 H        -0.367731         1.176013         2.802206
 H        -1.021667        -0.397866         2.867825
 H        -5.391136         1.603417         0.933618
 H        -4.103444         2.639860         0.344620
 H        -4.410417        -0.206701        -0.373573
 H        -3.295001         1.142409        -0.980505
 H        -2.823125        -1.034512         1.077757
