19
Iteration:  2473charge 0 multiplicity 1
 O         0.155670        -0.281915         0.163759
 C        -0.943408         0.363902         0.737016
 C        -1.245967         1.913371         0.692503
 C        -2.313692         1.274961         1.627286
 C        -1.087284         0.552871         2.405381
 O        -3.542001         1.752772         2.079133
 C        -4.430508         1.487691         0.913498
 C        -3.504647         0.728092        -0.180504
 C        -2.478063         0.081071         0.677200
 H        -0.157389        -0.512413        -0.764112
 H        -0.648551         2.780638         1.094835
 H        -1.715363         2.391578        -0.254899
 H        -0.378972         1.154889         2.834082
 H        -1.471076        -0.374308         2.941902
 H        -5.263008         0.974095         1.417011
 H        -4.828955         2.407140         0.472243
 H        -4.106723         0.006083        -0.815477
 H        -3.241663         1.402744        -0.892571
 H        -2.621018        -0.795853         1.254081
