19
Iteration:  3915
 O         0.282231        -0.294734         0.239329
 C        -0.824872         0.429194         0.748069
 C        -1.137994         1.899422         0.511493
 C        -2.319507         1.364418         1.579843
 C        -1.095667         0.520507         2.316058
 O        -3.539605         1.894819         1.970597
 C        -4.530498         1.294368         1.040843
 C        -3.794074         0.672082        -0.172853
 C        -2.501879         0.166352         0.711935
 H         0.837421        -0.605818         0.905892
 H        -0.397927         2.535192         0.989038
 H        -1.472804         2.162645        -0.446115
 H        -0.422558         0.999236         2.962119
 H        -1.541046        -0.204109         2.963905
 H        -5.034031         0.469054         1.667959
 H        -5.138916         2.175503         0.695461
 H        -4.533880        -0.130693        -0.556343
 H        -3.578138         1.507206        -0.944984
 H        -2.803626        -0.862179         1.205876
