19
Iteration:  2149
 O         0.129461        -0.310312         0.170405
 C        -0.847315         0.432823         0.777828
 C        -1.195472         2.005512         0.715914
 C        -2.258494         1.236149         1.663689
 C        -1.171389         0.481066         2.371881
 O        -3.541706         1.739447         2.065901
 C        -4.372797         1.477556         0.888874
 C        -3.666966         0.675983        -0.193815
 C        -2.454196         0.156620         0.671526
 H        -0.170745        -0.290398        -0.712324
 H        -0.604541         2.808395         1.212458
 H        -1.618507         2.338349        -0.270099
 H        -0.481865         1.171089         2.986146
 H        -1.522877        -0.385803         2.807094
 H        -5.277872         1.112350         1.370962
 H        -4.661353         2.461229         0.450537
 H        -4.132447        -0.153304        -0.613068
 H        -3.386441         1.180252        -1.099744
 H        -2.604880        -0.904947         0.979456
