19
Iteration:  2577charge 0 multiplicity 1
 O         0.201639        -0.217642         0.217171
 C        -0.903227         0.408057         0.727563
 C        -1.435496         1.942182         0.684526
 C        -2.288125         1.170588         1.702684
 C        -1.027859         0.494536         2.328557
 O        -3.598476         1.666891         2.093845
 C        -4.276778         1.794531         0.781728
 C        -3.642574         0.577005        -0.156292
 C        -2.477388         0.027142         0.736116
 H        -0.038283        -0.239067        -0.787561
 H        -0.911094         2.787642         1.052355
 H        -1.791981         2.072999        -0.269117
 H        -0.142836         1.088630         2.924283
 H        -0.905385        -0.424033         2.843562
 H        -5.322015         1.517845         1.007569
 H        -4.166716         2.855387         0.419217
 H        -4.387639        -0.179268        -0.237787
 H        -3.233694         1.067507        -1.129947
 H        -2.795785        -0.914020         1.187494
