19
Iteration:  2167
 O         0.113093        -0.196643         0.227605
 C        -0.975988         0.443040         0.770416
 C        -1.249862         1.900719         0.677866
 C        -2.318454         1.231020         1.735809
 C        -0.998254         0.448688         2.327159
 O        -3.564995         1.726545         2.083430
 C        -4.388601         1.613599         0.839026
 C        -3.565091         0.633020        -0.207780
 C        -2.495022         0.087357         0.690525
 H         0.035684        -0.114564        -0.691600
 H        -0.442454         2.486176         1.030917
 H        -1.550948         2.254845        -0.251676
 H        -0.278192         1.081913         2.823094
 H        -1.135651        -0.649039         2.707496
 H        -5.330485         1.110685         1.084376
 H        -4.488812         2.661773         0.459523
 H        -4.385646        -0.126246        -0.554966
 H        -3.226839         1.148022        -1.181977
 H        -2.735075        -0.825739         1.249257
