19
Iteration:   443
 O         0.051827        -0.185036         0.134181
 C        -0.939720         0.466274         0.785735
 C        -1.110472         1.960377         0.819495
 C        -2.235716         1.281845         1.634469
 C        -1.196797         0.484139         2.363129
 O        -3.552327         1.759873         1.990323
 C        -4.439724         1.385516         0.870105
 C        -3.557972         0.701190        -0.205029
 C        -2.414252         0.063619         0.729655
 H        -0.389788        -0.781874        -0.409533
 H        -0.292606         2.592542         1.146669
 H        -1.717126         2.476500         0.002125
 H        -0.393940         1.074390         2.837514
 H        -1.287198        -0.508334         2.884848
 H        -5.280764         0.851136         1.339654
 H        -4.752991         2.380919         0.389258
 H        -3.963620        -0.172012        -0.878605
 H        -3.082567         1.406400        -0.897904
 H        -2.757753        -0.832534         1.260655
