19
Iteration:  4930charge 0 multiplicity 1
 O         0.070558        -0.297810         0.184726
 C        -0.962754         0.403027         0.725092
 C        -1.268519         1.976427         0.635429
 C        -2.216290         1.353150         1.722197
 C        -1.124179         0.542771         2.253855
 O        -3.431725         1.887431         1.962248
 C        -4.363507         1.461133         0.944760
 C        -3.717621         0.467398        -0.030406
 C        -2.456819         0.086546         0.674931
 H         0.806717         0.246176         0.343955
 H        -0.529006         2.623668         1.135202
 H        -1.799090         2.251033        -0.319027
 H        -0.452905         1.106017         2.985827
 H        -1.473711        -0.422848         2.645436
 H        -5.233385         0.983622         1.370636
 H        -4.649639         2.405037         0.432893
 H        -4.313856        -0.326158        -0.308121
 H        -3.386211         0.900801        -1.104403
 H        -2.536522        -0.889194         0.990017
