19
Iteration:  2990charge 0 multiplicity 1
 O         0.117957        -0.244467         0.073795
 C        -0.899113         0.373436         0.727237
 C        -1.296801         1.881737         0.707963
 C        -2.321937         1.292662         1.673462
 C        -1.113231         0.542316         2.343231
 O        -3.514892         1.845177         2.058038
 C        -4.457696         1.476807         0.885199
 C        -3.532317         0.664474        -0.195887
 C        -2.459751         0.058606         0.767027
 H         0.396945        -1.091721         0.470134
 H        -0.643703         2.697113         1.096573
 H        -1.702105         2.323378        -0.192838
 H        -0.435415         1.370034         2.848505
 H        -1.155105        -0.324951         3.005475
 H        -5.083463         0.726392         1.167405
 H        -4.819455         2.427136         0.546668
 H        -4.000539        -0.034001        -0.837541
 H        -3.134388         1.425453        -0.861004
 H        -2.766339        -0.811780         1.379403
