19
Iteration:  2026
 O         0.140696        -0.338599         0.115186
 C        -0.897294         0.413390         0.755477
 C        -1.187354         1.973729         0.719498
 C        -2.251841         1.277027         1.678523
 C        -1.136490         0.446600         2.314236
 O        -3.565199         1.878844         2.055347
 C        -4.506492         1.420797         0.862132
 C        -3.608215         0.655097        -0.173000
 C        -2.448127         0.138252         0.744956
 H         0.798454         0.300474        -0.056916
 H        -0.524708         2.642903         1.239304
 H        -1.664384         2.464698        -0.084477
 H        -0.410909         0.978548         2.901419
 H        -1.349496        -0.619936         2.755852
 H        -5.332674         0.802133         1.293587
 H        -4.725942         2.512686         0.582392
 H        -4.143006        -0.204220        -0.589434
 H        -3.348548         1.262075        -1.049057
 H        -2.741362        -0.887840         1.092184
