19
Iteration:  2098charge 0 multiplicity 1
 O         0.144907        -0.271025         0.250425
 C        -0.909368         0.382229         0.807864
 C        -1.224373         1.897762         0.725241
 C        -2.267416         1.299882         1.672765
 C        -1.069071         0.400376         2.352642
 O        -3.506830         1.888706         1.954928
 C        -4.509362         1.303295         0.921929
 C        -3.617133         0.832484        -0.216115
 C        -2.464387         0.168097         0.668416
 H         0.021910        -0.127210        -0.702555
 H        -0.397659         2.601643         0.998701
 H        -1.637210         2.204690        -0.284410
 H        -0.182707         0.881851         2.790581
 H        -1.241438        -0.675085         2.650068
 H        -4.854970         0.583654         1.660340
 H        -5.271111         2.035275         0.768249
 H        -4.083421        -0.033216        -0.916500
 H        -3.499881         1.646441        -1.008269
 H        -2.988012        -0.609901         1.207483
