19
Iteration:   279
 O         0.080487        -0.246475         0.107286
 C        -0.844173         0.548712         0.816249
 C        -1.135469         1.999386         0.832262
 C        -2.376482         1.156377         1.711511
 C        -1.128668         0.485476         2.372621
 O        -3.576722         1.641480         2.077200
 C        -4.402351         1.555368         0.833362
 C        -3.600139         0.703085        -0.237291
 C        -2.390762         0.133871         0.545325
 H        -0.248532        -1.224756         0.261275
 H        -0.724136         2.690932         1.477221
 H        -1.406493         2.346995        -0.230105
 H        -0.477804         1.144222         2.942727
 H        -1.381603        -0.521050         2.899071
 H        -5.382175         1.212579         1.202301
 H        -4.385270         2.626112         0.356651
 H        -4.241675        -0.236515        -0.585628
 H        -3.343755         1.360422        -1.147133
 H        -2.592488        -0.908936         1.018076
