19
Iteration:  4041charge 0 multiplicity 1
 O         0.110791        -0.118976         0.071865
 C        -0.868433         0.489859         0.823945
 C        -1.300557         1.892187         0.608351
 C        -2.285825         1.267119         1.722607
 C        -1.021639         0.550735         2.349950
 O        -3.564762         1.763324         2.017553
 C        -4.335575         1.623202         0.738336
 C        -3.723436         0.417811        -0.024332
 C        -2.426800         0.050827         0.820454
 H         0.160005        -1.064884         0.346616
 H        -0.563547         2.734542         0.705436
 H        -1.754963         2.109479        -0.379706
 H        -0.329842         1.354714         2.776930
 H        -1.211419        -0.391100         2.934727
 H        -5.410300         1.367189         0.951300
 H        -4.279310         2.557924         0.150825
 H        -4.313525        -0.438201        -0.086893
 H        -3.576688         0.608102        -1.065980
 H        -2.571636        -0.843658         1.400837
