19
Iteration:  2777
 O         0.149671        -0.264942         0.167456
 C        -0.903699         0.344045         0.764251
 C        -1.177890         1.930484         0.701847
 C        -2.270355         1.298830         1.637467
 C        -1.159503         0.471533         2.400655
 O        -3.519205         1.873782         1.971386
 C        -4.455206         1.371999         0.964198
 C        -3.578140         0.707626        -0.195117
 C        -2.491670         0.123094         0.711042
 H         0.200716         0.360510        -0.548566
 H        -0.333703         2.381431         1.049894
 H        -1.515922         2.241006        -0.266753
 H        -0.514594         1.205413         2.876940
 H        -1.419347        -0.590774         2.859314
 H        -5.120801         0.680246         1.600585
 H        -5.048826         2.183756         0.583806
 H        -4.389831         0.024294        -0.641277
 H        -3.283306         1.416986        -0.973881
 H        -2.881770        -0.819279         1.064526
