19
Iteration:  4102
 O         0.127692        -0.186848         0.136498
 C        -0.875947         0.486402         0.758230
 C        -1.311704         1.901656         0.491094
 C        -2.336527         1.237003         1.655487
 C        -1.052762         0.585930         2.369741
 O        -3.562994         1.799865         2.099341
 C        -4.339851         1.632966         0.835355
 C        -3.660011         0.476830        -0.085252
 C        -2.438447         0.003817         0.750935
 H         0.636082        -0.704814         0.771042
 H        -0.578582         2.611465         0.813095
 H        -1.807110         1.939160        -0.482926
 H        -0.387768         1.246339         2.853821
 H        -1.096089        -0.277510         2.995927
 H        -5.354485         1.187576         1.072135
 H        -4.359395         2.634804         0.423214
 H        -4.462585        -0.432554        -0.090131
 H        -3.568466         0.907465        -1.117840
 H        -2.537806        -1.012103         1.314088
