19
Iteration:  3524
 O        -0.010376        -0.288203         0.153137
 C        -0.955021         0.431590         0.748751
 C        -1.230370         1.927181         0.692678
 C        -2.255831         1.290596         1.705888
 C        -1.147619         0.606826         2.388648
 O        -3.494328         1.745903         2.000049
 C        -4.351208         1.496180         0.876170
 C        -3.563544         0.599099        -0.191455
 C        -2.440033         0.082108         0.666956
 H         0.947682        -0.037151         0.309096
 H        -0.451868         2.680727         0.971353
 H        -1.679141         2.330648        -0.278767
 H        -0.360045         1.197800         2.764848
 H        -1.457990        -0.176369         3.072547
 H        -5.039524         0.837223         1.374202
 H        -4.750855         2.479489         0.623170
 H        -4.334227        -0.229155        -0.393364
 H        -3.444390         0.988162        -1.141365
 H        -2.697689        -0.804727         1.227553
