19
Iteration:  4243charge 0 multiplicity 1
 O         0.222760        -0.219726         0.197532
 C        -0.923618         0.360686         0.762113
 C        -1.204638         1.877557         0.628500
 C        -2.295545         1.296327         1.544906
 C        -1.152381         0.599791         2.276031
 O        -3.487022         1.961585         1.996600
 C        -4.477198         1.371109         1.075968
 C        -3.648865         0.588747        -0.130030
 C        -2.519503         0.057869         0.614584
 H         0.625833        -0.903797         0.740728
 H        -0.601793         2.711150         1.147874
 H        -1.558495         2.310827        -0.382680
 H        -0.453858         1.249305         2.851350
 H        -1.310513        -0.258333         3.062051
 H        -4.986456         0.566554         1.634926
 H        -5.058750         2.217082         0.723529
 H        -4.203474        -0.228337        -0.682832
 H        -3.431518         1.307479        -0.894265
 H        -2.791523        -0.861534         1.055697
