19
Iteration:  1516charge 0 multiplicity 1
 O         0.089387        -0.202508         0.030908
 C        -0.950017         0.403020         0.747516
 C        -1.252808         1.886714         0.719117
 C        -2.305674         1.211822         1.729554
 C        -1.174979         0.574883         2.392293
 O        -3.589032         1.702547         2.066247
 C        -4.320306         1.674028         0.816860
 C        -3.551758         0.591691        -0.106503
 C        -2.430277         0.027139         0.666102
 H         0.977315         0.041000         0.463804
 H        -0.614217         2.715522         1.167477
 H        -1.611232         2.146117        -0.239573
 H        -0.343846         1.231876         2.773844
 H        -1.378431        -0.454775         2.815991
 H        -5.196711         1.073377         1.135794
 H        -4.485523         2.697375         0.381779
 H        -4.243757        -0.250091        -0.213422
 H        -3.350157         1.041156        -1.036082
 H        -2.598992        -0.880979         1.247894
