19
Iteration:   880
 O         0.017916        -0.255718        -0.043258
 C        -0.910094         0.437141         0.788684
 C        -1.225336         1.974796         0.853041
 C        -2.340076         1.213377         1.694777
 C        -1.101302         0.555016         2.407580
 O        -3.633845         1.728699         2.153792
 C        -4.253770         1.604486         0.763750
 C        -3.593754         0.470679        -0.197119
 C        -2.436727         0.140981         0.664359
 H         0.976799         0.130367         0.008434
 H        -0.510849         2.624134         1.475231
 H        -1.457860         2.497388        -0.016388
 H        -0.278117         1.159912         2.892804
 H        -1.458786        -0.359183         2.930116
 H        -5.316771         1.416706         0.916945
 H        -4.164199         2.477935         0.091022
 H        -4.269345        -0.497315        -0.176119
 H        -3.418484         0.838679        -1.199487
 H        -2.588749        -0.822400         1.241850
