19
Iteration:  4231charge 0 multiplicity 1
 O         0.231895        -0.313820         0.189060
 C        -0.804565         0.443403         0.773451
 C        -1.266003         1.951797         0.587487
 C        -2.312668         1.315474         1.559754
 C        -1.201626         0.593089         2.289418
 O        -3.471860         1.924865         2.022703
 C        -4.427193         1.301571         1.047726
 C        -3.703232         0.622201        -0.165596
 C        -2.473046         0.120910         0.676700
 H         0.311060        -1.077312         0.760258
 H        -0.481605         2.651378         1.133921
 H        -1.525674         2.269336        -0.512102
 H        -0.477476         1.298015         2.797947
 H        -1.634722        -0.417479         2.765006
 H        -5.004357         0.585394         1.619795
 H        -5.237393         2.013260         0.703728
 H        -4.374237        -0.106103        -0.559574
 H        -3.416261         1.336738        -0.956310
 H        -2.713710        -0.706188         1.261166
