19
Iteration:  1389
 O         0.044870        -0.336912         0.043452
 C        -0.884319         0.407530         0.838975
 C        -1.297395         1.904014         0.786244
 C        -2.357087         1.232132         1.672690
 C        -1.143169         0.566302         2.385048
 O        -3.513365         1.882759         1.960627
 C        -4.344784         1.392532         0.931593
 C        -3.516927         0.704544        -0.169373
 C        -2.439719         0.148884         0.668186
 H         0.850854         0.126757        -0.025866
 H        -0.731584         2.678591         1.397609
 H        -1.563349         2.231626        -0.253772
 H        -0.420196         1.154976         2.988540
 H        -1.261940        -0.378346         2.735056
 H        -5.055090         0.625755         1.381357
 H        -5.097309         2.156726         0.697476
 H        -4.186772        -0.175654        -0.638941
 H        -3.297255         1.266758        -1.106405
 H        -2.606205        -0.894517         1.031233
