19
Iteration:  1307
 O         0.074256        -0.219152         0.106944
 C        -0.910986         0.440710         0.730134
 C        -1.305439         1.960088         0.746710
 C        -2.299363         1.211181         1.634022
 C        -1.159685         0.447409         2.345885
 O        -3.476259         1.851008         1.941632
 C        -4.354153         1.427022         0.914543
 C        -3.577933         0.694582        -0.134447
 C        -2.458833         0.065639         0.754492
 H         0.921123        -0.090036         0.554675
 H        -0.617825         2.660769         1.200061
 H        -1.754704         2.335367        -0.216577
 H        -0.455859         0.975155         2.904220
 H        -1.473742        -0.478770         2.939544
 H        -4.970736         0.677073         1.221172
 H        -4.866445         2.284376         0.518771
 H        -4.174703        -0.070704        -0.473412
 H        -3.208287         1.288568        -0.976826
 H        -2.834183        -0.851884         1.282418
