19
Iteration:  1053
 O         0.053234        -0.284994         0.138998
 C        -0.900333         0.464687         0.780031
 C        -1.232207         2.021416         0.753743
 C        -2.267850         1.277758         1.617704
 C        -1.088357         0.434348         2.369899
 O        -3.448671         1.786878         2.021228
 C        -4.462537         1.496687         0.860508
 C        -3.659178         0.590882        -0.245221
 C        -2.455306         0.108788         0.734135
 H         0.863962         0.133255         0.327574
 H        -0.448090         2.663995         1.359853
 H        -1.540571         2.356817        -0.239209
 H        -0.311468         1.070592         3.006240
 H        -1.412499        -0.448307         2.855438
 H        -5.215531         0.766379         1.234496
 H        -4.935975         2.427523         0.462605
 H        -4.343720        -0.306388        -0.575195
 H        -3.415994         1.167235        -1.155961
 H        -2.787128        -0.800889         1.342320
