19
Iteration:  4001
 O         0.080811        -0.103853        -0.020554
 C        -0.934747         0.421876         0.755068
 C        -1.163997         1.867342         0.701764
 C        -2.328078         1.280158         1.681712
 C        -1.103256         0.639596         2.497492
 O        -3.505302         1.930443         1.963797
 C        -4.385742         1.439571         0.783664
 C        -3.600310         0.402938        -0.063451
 C        -2.455933        -0.001787         0.833917
 H        -0.239778        -0.974774        -0.335889
 H        -0.436285         2.603632         1.086999
 H        -1.529046         2.250743        -0.229864
 H        -0.497325         1.407900         2.930885
 H        -1.175824        -0.278988         3.134227
 H        -5.259224         1.120353         1.265263
 H        -4.826777         2.308223         0.256263
 H        -4.392730        -0.394284        -0.238446
 H        -3.209897         0.844030        -1.036940
 H        -2.635513        -0.901307         1.424287
