19
Iteration:  2607
 O         0.154997        -0.228913         0.199113
 C        -0.970977         0.393482         0.698037
 C        -1.304464         1.929757         0.697551
 C        -2.302531         1.195364         1.670522
 C        -1.106153         0.552793         2.365564
 O        -3.572312         1.697895         2.117295
 C        -4.238125         1.661014         0.813994
 C        -3.639465         0.562972        -0.113065
 C        -2.482883         0.044762         0.701396
 H         0.284256         0.249177        -0.608568
 H        -0.568619         2.680488         1.122706
 H        -1.631292         2.255302        -0.292759
 H        -0.325950         1.257096         2.685107
 H        -1.122781        -0.434067         2.847739
 H        -5.256302         1.534263         0.954847
 H        -4.255579         2.664963         0.286852
 H        -4.352342        -0.163854        -0.430331
 H        -3.386701         1.023822        -1.044094
 H        -2.836687        -0.866211         1.056042
