19
Iteration:   383
 O         0.124874        -0.243837         0.187583
 C        -0.921427         0.480449         0.721683
 C        -1.061511         1.960390         0.746068
 C        -2.278525         1.260869         1.575330
 C        -1.245580         0.415001         2.306361
 O        -3.548111         1.784256         1.983368
 C        -4.458334         1.403038         1.033889
 C        -3.628081         0.730559        -0.205097
 C        -2.476341         0.128140         0.615870
 H         0.747407        -0.126198         0.946300
 H        -0.438257         2.501698         1.529157
 H        -1.158897         2.428900        -0.207356
 H        -0.372410         0.876814         2.868429
 H        -1.701173        -0.499576         2.709346
 H        -5.193923         0.685584         1.499985
 H        -5.068004         2.215258         0.710286
 H        -4.091109        -0.023532        -0.726193
 H        -3.279516         1.455314        -0.930153
 H        -2.501812        -0.903638         0.962007
