19
Iteration:  2704charge 0 multiplicity 1
 O         0.208705        -0.377384         0.191642
 C        -0.894113         0.411679         0.743417
 C        -1.147671         1.973115         0.645196
 C        -2.344048         1.332600         1.623181
 C        -1.198137         0.509263         2.382082
 O        -3.546106         1.855604         2.073135
 C        -4.433111         1.315601         0.956735
 C        -3.635758         0.747082        -0.170626
 C        -2.423601         0.149026         0.627809
 H        -0.055619        -0.210518        -0.695548
 H        -0.211849         2.550490         1.091738
 H        -1.521403         2.413185        -0.328826
 H        -0.615277         1.068580         3.028583
 H        -1.453266        -0.502051         2.701156
 H        -5.059055         0.593775         1.520506
 H        -5.164931         2.181444         0.791340
 H        -4.141290         0.023674        -0.803023
 H        -3.210917         1.430172        -0.883668
 H        -2.907473        -0.664837         1.287063
