19
Iteration:  3396
 O         0.030976        -0.166296         0.080719
 C        -0.947723         0.478785         0.764123
 C        -1.194861         1.919953         0.670856
 C        -2.308738         1.153320         1.749008
 C        -1.066582         0.579651         2.398741
 O        -3.506798         1.826089         2.074680
 C        -4.362242         1.478421         0.760033
 C        -3.575832         0.640365        -0.224593
 C        -2.488810         0.011399         0.778011
 H        -0.020756        -1.052825         0.483724
 H        -0.533315         2.506916         1.223389
 H        -1.482450         2.254952        -0.285451
 H        -0.437333         1.292122         2.908565
 H        -1.175710        -0.430260         2.917439
 H        -5.307842         1.075750         1.185710
 H        -4.662842         2.440033         0.356969
 H        -4.133145        -0.243568        -0.644048
 H        -3.163879         1.274155        -0.976016
 H        -2.795374        -1.012678         1.222049
