19
Iteration:  2600charge 0 multiplicity 1
 O         0.186133        -0.252162         0.195391
 C        -0.922402         0.400798         0.732677
 C        -1.324041         1.920464         0.673800
 C        -2.301955         1.196678         1.748419
 C        -1.088963         0.571504         2.276298
 O        -3.605378         1.710169         2.094231
 C        -4.266279         1.657303         0.799239
 C        -3.644834         0.607445        -0.090468
 C        -2.509513        -0.007685         0.676447
 H         0.284748         0.154875        -0.649579
 H        -0.684905         2.610242         1.145957
 H        -1.799258         2.398451        -0.167446
 H        -0.316081         1.224781         2.911431
 H        -1.045460        -0.336711         2.854303
 H        -5.401899         1.618590         0.945894
 H        -3.969164         2.628581         0.384781
 H        -4.376366        -0.169671        -0.321513
 H        -3.235096         1.207739        -0.996684
 H        -2.718353        -1.037519         1.105144
