19
Iteration:  3465
 O         0.157925        -0.081657         0.221202
 C        -0.945790         0.380873         0.790027
 C        -1.392413         1.840798         0.699638
 C        -2.365133         1.165389         1.722605
 C        -0.993003         0.509905         2.316448
 O        -3.537417         1.773225         2.043417
 C        -4.215902         1.770931         0.738367
 C        -3.740771         0.474888        -0.088747
 C        -2.413521        -0.038697         0.696861
 H         0.142779        -0.269600        -0.681950
 H        -0.692610         2.522416         1.221397
 H        -1.701148         2.145827        -0.302452
 H        -0.229770         1.255490         2.794884
 H        -1.118009        -0.451877         2.894686
 H        -5.333109         1.806815         0.817715
 H        -3.962110         2.726386         0.136540
 H        -4.546695        -0.202300        -0.009627
 H        -3.619861         0.908709        -1.143880
 H        -2.730442        -0.961210         1.181312
