19
Iteration:  4662charge 0 multiplicity 1
 O         0.183144        -0.160579         0.202456
 C        -0.988153         0.323033         0.765561
 C        -1.298615         1.807311         0.528639
 C        -2.259238         1.297226         1.667209
 C        -1.145182         0.556158         2.361208
 O        -3.422540         1.932371         2.003057
 C        -4.412983         1.533441         0.940528
 C        -3.635951         0.536824        -0.149718
 C        -2.517619        -0.010137         0.781773
 H         0.545972         0.602787        -0.304677
 H        -0.468917         2.415215         0.909991
 H        -1.670496         2.042310        -0.522026
 H        -0.202736         1.117823         2.684290
 H        -1.454586        -0.298658         3.008508
 H        -5.074295         0.847613         1.498284
 H        -4.926900         2.403422         0.445034
 H        -4.279904        -0.373216        -0.443108
 H        -3.414484         1.120345        -0.921860
 H        -2.789991        -0.952692         1.254083
