19
Iteration:  4125
 O         0.189826        -0.173753         0.053324
 C        -0.945294         0.382273         0.714355
 C        -1.248869         1.937924         0.703607
 C        -2.237740         1.372444         1.666713
 C        -1.058661         0.574931         2.324410
 O        -3.524963         1.829897         1.933310
 C        -4.425708         1.520042         0.844306
 C        -3.686838         0.430627        -0.050806
 C        -2.537705         0.066640         0.850100
 H         0.525605        -0.936300         0.514164
 H        -0.590240         2.463648         1.342992
 H        -1.630802         2.313706        -0.251297
 H        -0.307682         1.173476         2.779145
 H        -1.183144        -0.242536         2.960408
 H        -5.467127         1.187148         1.274584
 H        -4.514626         2.409861         0.217461
 H        -4.287277        -0.634827        -0.238009
 H        -3.399610         0.978729        -1.000089
 H        -2.755012        -0.824310         1.606892
