19
Iteration:  1971charge 0 multiplicity 1
 O         0.043166        -0.288372        -0.003995
 C        -0.868668         0.464208         0.754190
 C        -1.267506         1.962236         0.719391
 C        -2.240157         1.284229         1.688291
 C        -1.139176         0.542065         2.414852
 O        -3.661916         1.684489         2.081627
 C        -4.311583         1.661179         0.801932
 C        -3.603318         0.537015        -0.159472
 C        -2.428136         0.059368         0.780099
 H         0.890127         0.029815         0.301349
 H        -0.545848         2.581053         1.198838
 H        -1.653014         2.221744        -0.227167
 H        -0.317244         1.023941         2.825805
 H        -1.167149        -0.547030         2.808704
 H        -5.368274         1.322855         1.080497
 H        -4.420200         2.774439         0.477771
 H        -4.244078        -0.269295        -0.493234
 H        -3.085657         1.111095        -0.937076
 H        -2.560245        -0.918627         1.362672
