19
Iteration:  2779charge 0 multiplicity 1
 O         0.134590        -0.256342         0.168339
 C        -0.911818         0.346794         0.765343
 C        -1.145284         1.922810         0.699265
 C        -2.269014         1.285102         1.639905
 C        -1.148115         0.480424         2.405728
 O        -3.528058         1.867799         1.972448
 C        -4.451626         1.371366         0.954641
 C        -3.599406         0.705842        -0.192420
 C        -2.500628         0.114755         0.718302
 H         0.212649         0.438037        -0.559859
 H        -0.305252         2.460839         1.021021
 H        -1.511261         2.235271        -0.264039
 H        -0.521891         1.170694         2.902586
 H        -1.395716        -0.525759         2.874175
 H        -5.079215         0.704172         1.583687
 H        -4.945121         2.189902         0.530165
 H        -4.383400         0.043041        -0.637821
 H        -3.259288         1.420770        -0.950621
 H        -2.864929        -0.850452         0.997890
