19
Iteration:  3725
 O         0.182533        -0.233535         0.167642
 C        -0.899123         0.445306         0.822998
 C        -1.384834         2.017434         0.677864
 C        -2.330214         1.220770         1.671883
 C        -1.049897         0.511356         2.288739
 O        -3.561463         1.777798         1.969858
 C        -4.251143         1.676018         0.768588
 C        -3.687658         0.428329        -0.018554
 C        -2.484715        -0.025188         0.790777
 H         0.164703        -0.045161        -0.844086
 H        -0.811825         2.831756         1.163081
 H        -1.808234         2.404001        -0.296980
 H        -0.294392         1.109945         2.763995
 H        -1.061291        -0.245423         2.978205
 H        -5.285348         1.625793         1.092338
 H        -4.109957         2.699488         0.313855
 H        -4.441222        -0.331253        -0.049990
 H        -3.210977         0.745737        -1.036196
 H        -2.690518        -1.001005         1.327744
