19
Iteration:  1169
 O         0.003397        -0.167366         0.097640
 C        -0.972487         0.494265         0.736920
 C        -1.234725         1.977966         0.682730
 C        -2.286521         1.198678         1.704013
 C        -1.166394         0.462120         2.387324
 O        -3.562633         1.706613         2.047954
 C        -4.254934         1.695396         0.731354
 C        -3.587056         0.483238        -0.049710
 C        -2.388396         0.021780         0.662347
 H         0.830571         0.089823         0.499694
 H        -0.643110         2.656268         1.298184
 H        -1.737870         2.442075        -0.153906
 H        -0.350799         0.947362         3.066738
 H        -1.308474        -0.509824         2.879335
 H        -5.307309         1.437611         1.104605
 H        -4.180548         2.717165         0.367509
 H        -4.269903        -0.421583         0.017959
 H        -3.566848         0.776694        -1.107722
 H        -2.501038        -0.970108         1.066531
