19
Iteration:  2318
 O         0.154914        -0.312043         0.195035
 C        -0.917486         0.402075         0.737313
 C        -1.243390         1.959900         0.743180
 C        -2.313224         1.250110         1.672436
 C        -1.084628         0.567947         2.303022
 O        -3.582359         1.707735         2.065136
 C        -4.437012         1.577445         0.886903
 C        -3.584724         0.718931        -0.184996
 C        -2.451406         0.074708         0.682724
 H        -0.048832        -0.549993        -0.698400
 H        -0.416260         2.541203         1.238631
 H        -1.599273         2.394666        -0.238197
 H        -0.251818         1.115560         2.770481
 H        -1.075365        -0.422543         2.937392
 H        -5.342110         1.059262         1.245747
 H        -4.704298         2.548232         0.536230
 H        -4.184895        -0.171627        -0.539304
 H        -3.147604         1.223432        -0.997568
 H        -2.672409        -0.887848         1.136735
