19
Iteration:  4551charge 0 multiplicity 1
 O         0.102480        -0.229636         0.166180
 C        -0.990748         0.365631         0.673805
 C        -1.168829         1.855160         0.664660
 C        -2.217685         1.304338         1.706339
 C        -1.094564         0.633598         2.391684
 O        -3.504764         1.954177         1.895108
 C        -4.500101         1.338252         0.978441
 C        -3.602509         0.602400        -0.145362
 C        -2.456616         0.115302         0.780693
 H         0.112171        -0.907085        -0.494876
 H        -0.350872         2.515039         1.021415
 H        -1.648231         2.103385        -0.306054
 H        -0.470710         1.435876         2.914327
 H        -1.150350        -0.386594         2.845061
 H        -5.065270         0.472936         1.505786
 H        -5.125091         2.187709         0.753520
 H        -4.118654        -0.246106        -0.706870
 H        -3.361588         1.237269        -0.824694
 H        -2.673410        -0.773042         1.342548
