19
Iteration:  4368
 O         0.149684        -0.097602         0.159054
 C        -0.940596         0.404845         0.817925
 C        -1.401484         1.926919         0.616191
 C        -2.285236         1.170191         1.660616
 C        -0.996905         0.647126         2.352781
 O        -3.492780         1.718691         2.037262
 C        -4.262427         1.705571         0.772988
 C        -3.658727         0.459830        -0.103349
 C        -2.522543        -0.039999         0.827097
 H        -0.150985        -0.923481        -0.355983
 H        -0.832678         2.704179         1.007578
 H        -1.959293         2.045139        -0.243630
 H        -0.411545         1.421777         2.813673
 H        -1.145918        -0.250777         2.825919
 H        -5.290719         1.594039         1.145414
 H        -4.195377         2.616830         0.215580
 H        -4.495218        -0.275107        -0.426169
 H        -3.267799         0.680832        -1.187453
 H        -2.602664        -1.044501         1.375112
