19
Iteration:  3309
 O         0.239949        -0.263638         0.239088
 C        -0.862371         0.421246         0.778721
 C        -1.161383         1.924054         0.640725
 C        -2.266074         1.299507         1.619739
 C        -1.272168         0.449245         2.286721
 O        -3.480898         1.953025         1.954101
 C        -4.453962         1.278960         1.034742
 C        -3.730070         0.749223        -0.175049
 C        -2.415660         0.195046         0.609420
 H         0.065154        -1.260219         0.373983
 H        -0.455559         2.638943         0.922153
 H        -1.502596         2.259750        -0.314180
 H        -0.582729         0.927392         3.000386
 H        -1.554948        -0.579694         2.755157
 H        -4.891839         0.402160         1.658049
 H        -5.393354         1.774995         0.988087
 H        -4.256435        -0.071957        -0.714598
 H        -3.567799         1.594901        -0.790436
 H        -2.716162        -0.711449         1.119317
