19
Iteration:  3694
 O         0.013896        -0.298584         0.116235
 C        -0.915428         0.422047         0.798405
 C        -1.259451         1.973439         0.662016
 C        -2.324376         1.349977         1.798127
 C        -1.040678         0.617386         2.335769
 O        -3.613899         1.666225         2.062073
 C        -4.258504         1.538036         0.747364
 C        -3.534093         0.512693        -0.109600
 C        -2.462716         0.136985         0.778082
 H        -0.226006        -0.419420        -0.770066
 H        -0.531866         2.662643         1.033235
 H        -1.827101         2.167489        -0.241804
 H        -0.258477         1.395263         2.534115
 H        -1.125197        -0.143707         3.121006
 H        -5.313841         1.376032         0.943158
 H        -4.310946         2.562762         0.309661
 H        -4.145246        -0.329196        -0.362845
 H        -3.165359         0.905316        -1.221925
 H        -2.619363        -0.874952         1.325894
