19
Iteration:  4529
 O         0.192093        -0.245029         0.133715
 C        -0.888331         0.413892         0.854205
 C        -1.226064         1.977510         0.628612
 C        -2.302583         1.393120         1.630892
 C        -1.095065         0.495000         2.312791
 O        -3.485651         1.961572         1.912704
 C        -4.453444         1.384608         0.975943
 C        -3.663121         0.495968        -0.069174
 C        -2.481970         0.108487         0.738527
 H        -0.279499        -1.018625        -0.324715
 H        -0.535969         2.621517         1.245312
 H        -1.562690         2.281137        -0.409532
 H        -0.167706         0.935753         2.847401
 H        -1.587108        -0.385534         2.812729
 H        -5.200159         0.615010         1.402129
 H        -4.912118         2.274177         0.523017
 H        -4.282556        -0.361757        -0.443551
 H        -3.468508         0.980797        -0.877175
 H        -2.633883        -0.818413         1.253942
