19
Iteration:  1390
 O         0.050286        -0.337956         0.034652
 C        -0.887709         0.411434         0.840699
 C        -1.299218         1.908602         0.794114
 C        -2.354168         1.220675         1.669580
 C        -1.147103         0.571088         2.388836
 O        -3.509183         1.885290         1.957336
 C        -4.341629         1.389066         0.927878
 C        -3.520489         0.709992        -0.177846
 C        -2.446367         0.136268         0.682191
 H         0.888805         0.124616        -0.036174
 H        -0.751883         2.653679         1.375013
 H        -1.572397         2.261159        -0.248629
 H        -0.419810         1.167697         2.987056
 H        -1.272723        -0.391818         2.736329
 H        -5.056619         0.620318         1.413228
 H        -5.099958         2.189608         0.697498
 H        -4.153199        -0.167397        -0.617875
 H        -3.295148         1.269469        -1.117715
 H        -2.629972        -0.853274         1.065441
