19
Iteration:  4353charge 0 multiplicity 1
 O         0.172628        -0.218526         0.129697
 C        -0.943538         0.514327         0.683126
 C        -1.422087         1.902647         0.552113
 C        -2.336421         1.196165         1.801347
 C        -1.057384         0.659142         2.359739
 O        -3.610379         1.725166         2.085775
 C        -4.231837         1.628089         0.766756
 C        -3.572497         0.511762        -0.079906
 C        -2.451273         0.000264         0.829177
 H        -0.144338        -1.027889        -0.354629
 H        -0.600557         2.588832         1.009009
 H        -1.757730         2.375128        -0.442849
 H        -0.238549         1.381619         2.731405
 H        -1.016744        -0.343559         2.983088
 H        -5.376985         1.454524         0.798102
 H        -4.136277         2.624252         0.283863
 H        -4.268652        -0.366722        -0.180458
 H        -3.266259         0.967625        -0.942340
 H        -2.673766        -0.911574         1.360848
