19
Iteration:  2347
 O         0.053473        -0.353065         0.230562
 C        -0.855705         0.477442         0.755904
 C        -1.253618         1.989413         0.756001
 C        -2.273214         1.266447         1.657995
 C        -1.146014         0.491962         2.314175
 O        -3.518704         1.820522         2.023933
 C        -4.381131         1.396344         0.946627
 C        -3.611312         0.679099        -0.267420
 C        -2.436845         0.165772         0.662556
 H        -0.023893        -0.212632        -0.779411
 H        -0.462469         2.655261         1.146115
 H        -1.771852         2.309099        -0.140479
 H        -0.258102         0.832769         3.013519
 H        -1.239402        -0.513860         2.663598
 H        -5.197447         0.835594         1.488898
 H        -4.826066         2.410467         0.636059
 H        -4.074980        -0.176468        -0.584884
 H        -3.177718         1.369906        -1.012259
 H        -2.693275        -0.790383         1.226392
