19
Iteration:  1282charge 0 multiplicity 1
 O         0.043953        -0.255911         0.028678
 C        -0.927151         0.444391         0.707160
 C        -1.148653         1.929524         0.791227
 C        -2.298775         1.349160         1.742907
 C        -1.069504         0.455430         2.424066
 O        -3.592916         1.871906         2.065592
 C        -4.469503         1.447432         0.855669
 C        -3.611369         0.521353        -0.254567
 C        -2.433193         0.084572         0.725347
 H         0.866299         0.092679         0.272973
 H        -0.313522         2.477162         1.166382
 H        -1.405788         2.402726        -0.168292
 H        -0.311904         1.207794         2.943015
 H        -1.301249        -0.426082         3.112313
 H        -5.342401         0.883105         1.186734
 H        -4.678821         2.393808         0.273679
 H        -4.018563        -0.302091        -0.811871
 H        -3.231666         1.314624        -0.870206
 H        -2.654845        -0.886056         1.118398
