19
Iteration:   120
 O         0.125246        -0.138796         0.142085
 C        -0.919667         0.351585         0.808111
 C        -1.211105         1.843176         0.773477
 C        -2.397943         1.128379         1.687318
 C        -1.258363         0.356336         2.325862
 O        -3.503947         1.813115         2.013016
 C        -4.402597         1.540978         0.938115
 C        -3.445486         0.805696        -0.262382
 C        -2.479594         0.100093         0.665998
 H         0.888346         0.577014         0.189608
 H        -0.545567         2.543487         1.286853
 H        -1.573269         2.143036        -0.235722
 H        -0.586665         0.921915         2.974954
 H        -1.562129        -0.701901         2.684898
 H        -5.152934         0.749529         1.239673
 H        -4.857621         2.457657         0.552811
 H        -3.902037         0.079688        -0.875777
 H        -3.088058         1.594268        -0.820507
 H        -2.848997        -0.874251         0.919819
