19
Iteration:  4286charge 0 multiplicity 1
 O         0.209334        -0.158906         0.038266
 C        -0.904514         0.385169         0.819077
 C        -1.306141         1.882067         0.673820
 C        -2.306076         1.323254         1.611603
 C        -1.118990         0.532125         2.354442
 O        -3.553946         1.982749         2.009030
 C        -4.468542         1.486398         0.954226
 C        -3.562150         0.459300        -0.165938
 C        -2.437041         0.024685         0.778832
 H         0.092789        -1.064607         0.224915
 H        -0.505874         2.616864         1.119501
 H        -1.554365         2.210571        -0.434503
 H        -0.226616         1.016722         2.862203
 H        -1.414009        -0.457283         2.968272
 H        -5.319738         1.040243         1.483414
 H        -4.911714         2.398357         0.415730
 H        -4.201837        -0.382702        -0.361434
 H        -3.172611         1.005411        -0.980529
 H        -2.690715        -0.870420         1.263012
