19
Iteration:  2827
 O         0.027851        -0.329350         0.046730
 C        -0.891462         0.472172         0.742705
 C        -1.378642         1.995485         0.707015
 C        -2.255670         1.276575         1.781582
 C        -1.124305         0.516215         2.383289
 O        -3.547406         1.758257         2.068535
 C        -4.293774         1.524344         0.791959
 C        -3.590900         0.560348        -0.155533
 C        -2.403414         0.104611         0.706942
 H         0.857068        -0.124262         0.514495
 H        -0.602702         2.752626         1.175002
 H        -1.780885         2.355227        -0.293589
 H        -0.212434         1.009576         2.773391
 H        -1.421596        -0.365096         2.804520
 H        -5.193080         1.118350         1.149280
 H        -4.316065         2.592138         0.441606
 H        -4.310539        -0.148296        -0.472959
 H        -3.255775         1.122203        -1.038318
 H        -2.861328        -0.781454         1.239785
