19
Iteration:   265
 O         0.167552        -0.233690         0.138154
 C        -0.924491         0.476585         0.713823
 C        -1.218392         2.044978         0.834477
 C        -2.295702         1.176569         1.629271
 C        -1.226808         0.476824         2.358323
 O        -3.591039         1.616960         2.111530
 C        -4.360324         1.706414         0.915504
 C        -3.603683         0.564507        -0.247289
 C        -2.412735         0.099281         0.543210
 H         0.291570        -0.984653         0.665473
 H        -0.363857         2.516437         1.450978
 H        -1.506596         2.686018         0.029213
 H        -0.536335         1.079340         3.006369
 H        -1.339416        -0.516258         2.799371
 H        -5.413490         1.474552         1.115896
 H        -4.350077         2.768770         0.450245
 H        -4.237281        -0.228964        -0.658597
 H        -3.338072         1.227049        -1.097265
 H        -2.589805        -0.903745         0.907867
