19
Iteration:  2554
 O         0.132956        -0.142761         0.169929
 C        -0.973663         0.457040         0.707140
 C        -1.315551         1.931332         0.714942
 C        -2.310533         1.213753         1.663895
 C        -1.156360         0.520031         2.364362
 O        -3.525297         1.673699         2.102327
 C        -4.228368         1.675615         0.814096
 C        -3.681494         0.515294        -0.162852
 C        -2.409106         0.042033         0.731317
 H        -0.156315        -0.450028        -0.672879
 H        -0.405778         2.375044         1.092179
 H        -1.579340         2.268125        -0.225416
 H        -0.273090         1.006628         2.990570
 H        -1.453198        -0.337133         2.969702
 H        -5.241249         1.612227         1.108479
 H        -4.001622         2.668508         0.306944
 H        -4.374633        -0.278951        -0.271230
 H        -3.409554         1.107331        -1.092417
 H        -2.590470        -0.932446         1.085530
