19
Iteration:  4597
 O         0.110297        -0.386513         0.254483
 C        -0.923541         0.500816         0.731784
 C        -1.203225         1.973636         0.544088
 C        -2.226728         1.353088         1.673819
 C        -1.124499         0.594708         2.354060
 O        -3.524128         1.842231         1.971899
 C        -4.491607         1.303294         0.997591
 C        -3.560999         0.621529        -0.140347
 C        -2.439523         0.213182         0.701724
 H        -0.320364        -0.896014        -0.524752
 H        -0.362055         2.536986         0.974057
 H        -1.651199         2.413461        -0.404546
 H        -0.198350         1.088690         2.819330
 H        -1.469672        -0.335658         2.871635
 H        -5.056634         0.654423         1.715115
 H        -5.101412         2.218455         0.670004
 H        -4.020539        -0.339535        -0.549550
 H        -3.585069         1.197138        -1.025719
 H        -2.629460        -0.749287         1.118731
