19
Iteration:  4829
 O         0.195149        -0.341902         0.196192
 C        -0.869407         0.466744         0.747827
 C        -1.237191         1.968472         0.655824
 C        -2.307400         1.312137         1.639390
 C        -0.985867         0.608662         2.322665
 O        -3.574558         1.775877         1.977816
 C        -4.422491         1.592050         0.893885
 C        -3.721559         0.447469        -0.093471
 C        -2.472809         0.101626         0.815575
 H        -0.103831        -0.274692        -0.788732
 H        -0.503160         2.840312         0.788570
 H        -1.762656         2.229902        -0.267173
 H        -0.168607         1.140428         2.904544
 H        -1.137736        -0.389722         2.902381
 H        -5.385306         1.313865         1.296510
 H        -4.564859         2.454594         0.266304
 H        -4.437496        -0.415873        -0.049342
 H        -3.725393         0.868909        -1.129712
 H        -2.596802        -0.882100         1.154584
