19
Iteration:  4478
 O         0.087518        -0.194118         0.083660
 C        -0.924766         0.395746         0.831900
 C        -1.243700         1.859697         0.565203
 C        -2.291453         1.303328         1.622143
 C        -1.052446         0.636114         2.332584
 O        -3.550028         1.753545         2.084579
 C        -4.429968         1.534721         0.897737
 C        -3.565512         0.577955        -0.136292
 C        -2.459560         0.056163         0.771858
 H         0.337125        -0.992659         0.528012
 H        -0.503292         2.471587         0.982799
 H        -1.664045         2.101303        -0.397857
 H        -0.352788         1.380939         2.719945
 H        -1.269547        -0.169988         2.998501
 H        -5.300200         1.012133         1.273554
 H        -4.673814         2.425569         0.300028
 H        -4.227985        -0.263492        -0.513616
 H        -3.206828         1.199993        -1.114758
 H        -2.793077        -0.681059         1.543533
