19
Iteration:  3344
 O         0.133477        -0.247764         0.197098
 C        -0.872089         0.405145         0.765859
 C        -1.069768         1.936108         0.754370
 C        -2.305493         1.288007         1.613234
 C        -1.197075         0.488014         2.265318
 O        -3.498386         1.894391         1.883888
 C        -4.487647         1.307568         1.033814
 C        -3.738281         0.707154        -0.145676
 C        -2.439149         0.193437         0.605055
 H         0.371472        -0.981018         0.846599
 H        -0.298613         2.373195         1.449951
 H        -1.338090         2.392889        -0.170511
 H        -0.446162         1.171482         2.753366
 H        -1.395287        -0.550530         2.742889
 H        -4.643469         0.451936         1.724560
 H        -5.265299         2.023735         0.759315
 H        -4.236612        -0.051074        -0.657131
 H        -3.480802         1.457853        -0.929915
 H        -2.777583        -0.732012         1.104501
