19
Iteration:   967charge 0 multiplicity 1
 O         0.108783        -0.390997         0.124509
 C        -0.835835         0.522777         0.820811
 C        -1.220434         2.045508         0.710218
 C        -2.293965         1.293156         1.621486
 C        -1.277373         0.463037         2.306940
 O        -3.474870         1.850341         1.984520
 C        -4.431919         1.334226         1.019949
 C        -3.612146         0.668184        -0.179333
 C        -2.429593         0.148190         0.645322
 H         0.976695         0.095666         0.278502
 H        -0.410607         2.719369         1.194436
 H        -1.519738         2.328928        -0.278099
 H        -0.681597         0.811236         3.120158
 H        -1.617859        -0.534691         2.568194
 H        -5.030711         0.663327         1.625087
 H        -5.051809         2.183970         0.669456
 H        -4.237774        -0.078363        -0.814530
 H        -3.329020         1.412844        -0.950353
 H        -2.687471        -0.856224         1.129097
