19
Iteration:  3183charge 0 multiplicity 1
 O         0.212430         0.021600         0.150907
 C        -0.904274         0.392295         0.777764
 C        -1.431767         1.792060         0.596892
 C        -2.367226         1.101205         1.690805
 C        -1.124281         0.515733         2.388192
 O        -3.506903         1.727063         2.053284
 C        -4.100123         1.738966         0.762389
 C        -3.749916         0.509948        -0.086536
 C        -2.499017         0.059266         0.752749
 H         0.300404        -0.917127         0.103187
 H        -0.817820         2.721568         0.976372
 H        -1.765956         1.845940        -0.440208
 H        -0.393959         1.189767         2.806579
 H        -1.339933        -0.392058         2.869537
 H        -5.131119         1.661990         1.003368
 H        -3.772313         2.818092         0.297489
 H        -4.597066        -0.143453         0.162796
 H        -3.645705         0.676009        -1.260645
 H        -2.665441        -0.950531         1.265270
