19
Iteration:   752charge 0 multiplicity 1
 O         0.025084        -0.341276         0.104303
 C        -0.928644         0.477173         0.764883
 C        -1.251296         2.015818         0.846736
 C        -2.262908         1.263333         1.624625
 C        -1.112459         0.498903         2.348948
 O        -3.515060         1.821432         1.947717
 C        -4.432937         1.426602         0.899811
 C        -3.552529         0.662843        -0.078260
 C        -2.399411         0.058669         0.615854
 H         0.669429         0.260351        -0.170458
 H        -0.509356         2.486559         1.511175
 H        -1.600973         2.568566        -0.038445
 H        -0.487932         1.080723         2.996365
 H        -1.536750        -0.436064         2.867051
 H        -5.198899         0.633437         1.071653
 H        -4.920122         2.309217         0.493526
 H        -4.136024        -0.085846        -0.466231
 H        -3.181593         1.217541        -0.955989
 H        -2.640610        -0.763946         1.218252
