19
Iteration:  3435
 O         0.184284        -0.205330         0.119220
 C        -0.908895         0.427845         0.753843
 C        -1.387785         1.992700         0.638395
 C        -2.334004         1.261609         1.679332
 C        -1.145666         0.531573         2.372927
 O        -3.569569         1.612205         2.119024
 C        -4.197699         1.726409         0.692645
 C        -3.660439         0.538530        -0.043403
 C        -2.388222         0.064064         0.771431
 H        -0.003993        -0.992681        -0.503853
 H        -0.718483         2.715185         1.229069
 H        -1.694256         2.416260        -0.423410
 H        -0.504807         1.109258         3.085290
 H        -1.474787        -0.400920         2.802202
 H        -5.241435         1.518275         0.876722
 H        -3.677159         2.576373         0.206306
 H        -4.509489        -0.183140        -0.114790
 H        -3.656951         0.712240        -1.151350
 H        -2.739868        -0.698075         1.440611
