19
Iteration:  1098
 O         0.105784        -0.244343         0.083533
 C        -0.897607         0.389663         0.855238
 C        -1.347948         1.962373         0.621445
 C        -2.309140         1.227773         1.692733
 C        -1.165664         0.543994         2.439876
 O        -3.452162         1.695909         2.127054
 C        -4.295432         1.585488         0.772699
 C        -3.585401         0.621480        -0.240376
 C        -2.531786         0.060625         0.739473
 H         0.733249         0.457746        -0.023766
 H        -0.682851         2.793997         1.050035
 H        -1.696544         2.190854        -0.433749
 H        -0.486089         1.157985         3.062862
 H        -1.418736        -0.448357         2.890009
 H        -5.228411         1.212253         1.166686
 H        -4.430406         2.649774         0.450495
 H        -4.299568        -0.200788        -0.475338
 H        -3.051255         0.933589        -1.192845
 H        -2.964229        -0.880369         1.201754
