19
Iteration:  3890
 O         0.198369        -0.181778         0.210513
 C        -0.965457         0.347483         0.742192
 C        -1.248268         1.931030         0.653669
 C        -2.305378         1.333879         1.600704
 C        -1.143092         0.502097         2.279521
 O        -3.444331         2.007496         1.875996
 C        -4.445571         1.297625         1.050072
 C        -3.670818         0.591564        -0.095978
 C        -2.477352         0.060120         0.655234
 H         0.726936        -0.734940         0.764573
 H        -0.433848         2.452244         1.192977
 H        -1.587278         2.442187        -0.270114
 H        -0.315590         0.995357         2.871630
 H        -1.433283        -0.338289         2.927201
 H        -5.001895         0.604098         1.752837
 H        -5.075335         2.109651         0.555207
 H        -4.174774        -0.257267        -0.486657
 H        -3.480873         1.375430        -0.893113
 H        -2.877687        -0.817143         1.199598
