19
Iteration:  2389charge 0 multiplicity 1
 O         0.183890        -0.238748         0.159155
 C        -0.948326         0.364979         0.862920
 C        -1.114864         1.837269         0.714459
 C        -2.296686         1.277421         1.678743
 C        -1.134214         0.462640         2.355103
 O        -3.466502         1.885031         1.883046
 C        -4.521335         1.379115         1.048853
 C        -3.637996         0.723146        -0.254993
 C        -2.533829         0.181494         0.667345
 H         0.229248         0.202793        -0.684993
 H        -0.385177         2.404704         1.244202
 H        -1.460220         2.051733        -0.251659
 H        -0.493610         1.046940         3.044549
 H        -1.185741        -0.504289         2.829074
 H        -4.973203         0.512462         1.545028
 H        -5.286004         2.200142         0.841822
 H        -4.219391        -0.075987        -0.776513
 H        -3.278442         1.696646        -0.845467
 H        -2.837805        -0.789157         1.142899
