19
Iteration:  3121charge 0 multiplicity 1
 O        -0.003574        -0.283626         0.070006
 C        -0.903221         0.469434         0.800571
 C        -1.234090         1.969274         0.669389
 C        -2.252841         1.275872         1.648381
 C        -1.101263         0.566945         2.463526
 O        -3.513518         1.765838         2.022087
 C        -4.421644         1.435749         0.895646
 C        -3.577814         0.594816        -0.203760
 C        -2.411060         0.169802         0.682054
 H         0.393793        -1.024651         0.475390
 H        -0.530992         2.594454         1.141144
 H        -1.512183         2.236853        -0.339246
 H        -0.317872         1.223151         3.063977
 H        -1.417217        -0.394700         2.920865
 H        -5.450984         1.073702         1.286015
 H        -4.861127         2.254768         0.412385
 H        -4.108597        -0.248434        -0.652716
 H        -3.173814         1.236833        -0.963958
 H        -2.589240        -0.650099         1.342841
