19
Iteration:  4558charge 0 multiplicity 1
 O         0.126193        -0.257156         0.147107
 C        -0.993696         0.365135         0.747187
 C        -1.211381         1.843259         0.635492
 C        -2.297870         1.306556         1.669007
 C        -1.087790         0.687686         2.399358
 O        -3.463060         1.924355         1.889484
 C        -4.478323         1.316544         1.027750
 C        -3.582690         0.625489        -0.109081
 C        -2.473377         0.101223         0.746929
 H        -0.119761        -0.870945        -0.510155
 H        -0.431554         2.500184         1.063115
 H        -1.496819         2.378594        -0.267589
 H        -0.309835         1.294311         2.815571
 H        -1.209962        -0.142632         3.104342
 H        -5.079847         0.498158         1.373358
 H        -5.146948         2.116304         0.722530
 H        -4.032704        -0.080778        -0.795394
 H        -3.177831         1.398254        -1.037339
 H        -2.764110        -0.913759         1.182731
