19
Iteration:  3692
 O         0.023276        -0.307819         0.109298
 C        -0.911720         0.418102         0.816616
 C        -1.263144         1.988550         0.646247
 C        -2.337631         1.350185         1.777617
 C        -1.041359         0.612864         2.356733
 O        -3.606978         1.661636         2.055177
 C        -4.262516         1.543787         0.770612
 C        -3.516247         0.521173        -0.111008
 C        -2.464831         0.127141         0.782913
 H        -0.319689        -0.407849        -0.804196
 H        -0.523247         2.702832         1.034157
 H        -1.832794         2.230601        -0.267057
 H        -0.303975         1.391084         2.516214
 H        -1.179387        -0.123471         3.096054
 H        -5.310711         1.309958         0.959252
 H        -4.300695         2.551826         0.272442
 H        -4.154837        -0.320899        -0.387006
 H        -3.191904         0.914873        -1.184390
 H        -2.638685        -0.861245         1.302225
