19
Iteration:  1363
 O         0.087923        -0.344240         0.186216
 C        -0.941013         0.459121         0.726786
 C        -1.119549         2.035582         0.660639
 C        -2.251772         1.307731         1.670542
 C        -1.138145         0.531503         2.358246
 O        -3.512420         1.763831         2.023796
 C        -4.485388         1.317782         0.932638
 C        -3.608838         0.704739        -0.211231
 C        -2.522780         0.141570         0.701215
 H         0.918653         0.097677         0.159013
 H        -0.199721         2.581403         1.093888
 H        -1.568553         2.463662        -0.219638
 H        -0.319293         0.852866         2.959664
 H        -1.432939        -0.566823         2.645042
 H        -5.298842         0.790366         1.333155
 H        -4.958006         2.221504         0.618948
 H        -4.037116        -0.077246        -0.860482
 H        -3.330614         1.458311        -0.941662
 H        -2.838821        -0.718104         1.420844
