19
Iteration:  4753charge 0 multiplicity 1
 O         0.059051        -0.260986         0.037860
 C        -0.956813         0.397672         0.731167
 C        -1.344059         1.885513         0.579957
 C        -2.322469         1.287809         1.794651
 C        -0.989178         0.642858         2.345537
 O        -3.612785         1.787084         2.043483
 C        -4.285620         1.639165         0.786434
 C        -3.607857         0.475202        -0.070817
 C        -2.447919         0.003170         0.867821
 H         0.879469        -0.001326         0.373340
 H        -0.508348         2.552590         1.001536
 H        -1.739763         2.274417        -0.367947
 H        -0.266741         1.439491         2.584575
 H        -1.023094        -0.361645         2.873625
 H        -5.278991         1.218413         1.058028
 H        -4.407634         2.685049         0.207116
 H        -4.126360        -0.422382        -0.260649
 H        -3.122601         0.874162        -0.956860
 H        -2.773105        -0.860076         1.403861
