19
Iteration:   264
 O         0.169431        -0.228071         0.143584
 C        -0.919432         0.467613         0.703303
 C        -1.228413         2.042816         0.832825
 C        -2.296269         1.186705         1.632193
 C        -1.230011         0.473936         2.354108
 O        -3.589233         1.614749         2.108104
 C        -4.355562         1.708488         0.911441
 C        -3.605763         0.564331        -0.250583
 C        -2.422071         0.097787         0.550879
 H         0.361228        -0.993854         0.670569
 H        -0.340449         2.506357         1.454060
 H        -1.519683         2.676074         0.047378
 H        -0.533004         1.054718         3.021110
 H        -1.347482        -0.490678         2.781785
 H        -5.406600         1.475072         1.120960
 H        -4.319577         2.757935         0.499618
 H        -4.234736        -0.194132        -0.617507
 H        -3.341169         1.203418        -1.078992
 H        -2.577044        -0.888976         0.895479
