19
Iteration:  1501
 O         0.127499        -0.233195         0.062784
 C        -0.927709         0.373608         0.768233
 C        -1.327198         1.908306         0.619954
 C        -2.283067         1.285130         1.697602
 C        -1.098003         0.521621         2.414343
 O        -3.572992         1.664961         2.097001
 C        -4.336412         1.532601         0.849578
 C        -3.602892         0.649085        -0.200844
 C        -2.459327         0.129369         0.748694
 H         0.960440         0.060406         0.516848
 H        -0.480206         2.450552         0.918280
 H        -1.903276         2.241396        -0.285635
 H        -0.452077         1.129739         2.985886
 H        -1.347146        -0.269883         3.144109
 H        -5.441468         1.488487         1.062433
 H        -4.238449         2.568012         0.412275
 H        -4.230228        -0.148046        -0.585571
 H        -3.169190         1.341024        -1.012985
 H        -2.822150        -0.779886         1.150637
