19
Iteration:   572charge 0 multiplicity 1
 O         0.012979        -0.190327         0.119530
 C        -0.961530         0.447339         0.732315
 C        -1.232095         2.009261         0.767637
 C        -2.287467         1.235238         1.823259
 C        -1.060630         0.409424         2.344688
 O        -3.631156         1.758075         2.066840
 C        -4.316603         1.626738         0.781825
 C        -3.553782         0.409581        -0.207497
 C        -2.429901         0.080202         0.705444
 H         0.540461         0.554939        -0.285578
 H        -0.457661         2.592235         1.350286
 H        -1.682217         2.749519        -0.085315
 H        -0.142471         0.977833         2.732919
 H        -1.291451        -0.658005         2.675847
 H        -5.414744         1.647230         0.921847
 H        -3.887744         2.520705         0.221441
 H        -4.295782        -0.393784        -0.401260
 H        -3.377754         0.951204        -1.136785
 H        -2.668362        -0.850600         1.293729
