19
Iteration:  1702charge 0 multiplicity 1
 O         0.077603        -0.292223         0.090117
 C        -0.983237         0.392369         0.778646
 C        -1.265962         1.879135         0.723069
 C        -2.280689         1.219960         1.699833
 C        -1.043516         0.494532         2.362932
 O        -3.556282         1.916404         1.965440
 C        -4.385129         1.359293         0.940922
 C        -3.529510         0.739330        -0.170711
 C        -2.477729         0.157319         0.696692
 H         0.909581         0.318969         0.150719
 H        -0.591835         2.492346         1.331003
 H        -1.689865         2.370119        -0.121635
 H        -0.234192         1.183510         2.842982
 H        -1.546563        -0.366595         2.793443
 H        -5.108043         0.425900         1.318095
 H        -5.158197         2.180500         0.542177
 H        -4.048472        -0.167226        -0.558041
 H        -3.124932         1.270760        -1.006618
 H        -2.824721        -0.800627         1.073925
