19
Iteration:  4619charge 0 multiplicity 1
 O         0.135218        -0.344806         0.287269
 C        -0.923380         0.432326         0.759917
 C        -1.147738         1.981903         0.683549
 C        -2.288085         1.386161         1.558484
 C        -1.040075         0.599273         2.251817
 O        -3.492264         1.863249         1.996345
 C        -4.475035         1.360714         0.955823
 C        -3.718867         0.514573        -0.137673
 C        -2.513424         0.137827         0.685173
 H         0.034604        -0.473658        -0.641270
 H        -0.422649         2.557102         1.278745
 H        -1.433096         2.481762        -0.303546
 H        -0.218573         1.247159         2.723619
 H        -1.216530        -0.372207         2.781202
 H        -5.129037         0.711974         1.630704
 H        -4.964423         2.372291         0.728477
 H        -4.471369        -0.239245        -0.578010
 H        -3.235927         0.989089        -0.918168
 H        -2.612799        -0.723910         1.312780
