19
Iteration:  2433
 O         0.134216        -0.339848         0.260260
 C        -0.918379         0.423427         0.713198
 C        -1.163964         2.046484         0.707810
 C        -2.236871         1.287739         1.584924
 C        -1.176846         0.453748         2.281473
 O        -3.507892         1.837148         2.028930
 C        -4.491543         1.398201         1.020400
 C        -3.622570         0.661054        -0.155067
 C        -2.471095         0.125954         0.630679
 H         0.514198        -0.007938        -0.542394
 H        -0.347378         2.462693         1.276904
 H        -1.467078         2.563283        -0.177435
 H        -0.315700         1.037619         2.763401
 H        -1.581137        -0.484484         2.837455
 H        -5.226077         0.699463         1.400266
 H        -4.965526         2.337429         0.608440
 H        -4.142446        -0.206013        -0.660519
 H        -3.303788         1.479471        -0.989901
 H        -2.872807        -0.802881         1.096075
