19
Iteration:  2711
 O         0.212160        -0.384070         0.203173
 C        -0.866168         0.428319         0.767907
 C        -1.137229         2.003282         0.669916
 C        -2.291480         1.361060         1.629342
 C        -1.202694         0.491042         2.356551
 O        -3.540576         1.838896         2.061577
 C        -4.457077         1.297914         0.974481
 C        -3.678457         0.734835        -0.197203
 C        -2.470111         0.167487         0.610073
 H         0.032422        -0.461854        -0.785627
 H        -0.353901         2.463242         1.140108
 H        -1.343202         2.442794        -0.299345
 H        -0.525004         1.214852         2.884547
 H        -1.512097        -0.456182         2.970896
 H        -4.904992         0.396447         1.463531
 H        -4.935194         2.144532         0.649738
 H        -4.427294         0.041598        -0.746165
 H        -3.310208         1.586966        -0.807995
 H        -2.885150        -0.660202         1.201062
