19
Iteration:  4727charge 0 multiplicity 1
 O        -0.105759        -0.348904         0.045798
 C        -0.906754         0.494879         0.803408
 C        -1.281637         2.041185         0.633552
 C        -2.279292         1.325248         1.719690
 C        -1.087084         0.694120         2.335350
 O        -3.500083         1.691820         2.042736
 C        -4.250342         1.506609         0.804565
 C        -3.627591         0.456652        -0.113164
 C        -2.407201         0.071357         0.820825
 H         0.788794        -0.372279         0.300142
 H        -0.642804         2.787612         1.086791
 H        -1.680162         2.326815        -0.392152
 H        -0.304736         1.391443         2.750973
 H        -1.443220        -0.185697         2.923477
 H        -5.294486         1.381746         1.066410
 H        -4.182733         2.421127         0.328381
 H        -4.194042        -0.568477        -0.279658
 H        -3.278853         0.888603        -1.023527
 H        -2.666374        -0.846745         1.405359
