19
Iteration:   720charge 0 multiplicity 1
 O         0.136353        -0.216002         0.014817
 C        -0.972413         0.381375         0.798993
 C        -1.177585         1.820923         0.715360
 C        -2.259030         1.299800         1.750893
 C        -1.154066         0.420987         2.433466
 O        -3.574947         1.948038         1.912031
 C        -4.434919         1.276244         0.965607
 C        -3.545240         0.761418        -0.193716
 C        -2.494912         0.191256         0.701778
 H         1.011726         0.125709         0.443705
 H        -0.277357         2.440115         0.958255
 H        -1.641578         2.158014        -0.259485
 H        -0.533106         1.038746         2.994187
 H        -1.512608        -0.562590         2.891954
 H        -4.929808         0.337076         1.354756
 H        -5.265516         1.923801         0.727656
 H        -4.050433        -0.039596        -0.648722
 H        -3.122971         1.494359        -0.972835
 H        -2.869217        -0.648311         1.239488
