19
Iteration:  3921
 O         0.255522        -0.304683         0.237881
 C        -0.811984         0.381186         0.789238
 C        -1.171771         1.927259         0.515408
 C        -2.306773         1.371629         1.580561
 C        -1.096258         0.564588         2.343661
 O        -3.500903         1.838452         1.953086
 C        -4.528083         1.272964         1.029127
 C        -3.812929         0.712978        -0.140264
 C        -2.511969         0.161222         0.671720
 H         0.874115        -0.668289         0.931948
 H        -0.418180         2.644815         0.936032
 H        -1.471615         2.263378        -0.534191
 H        -0.301824         1.187863         2.923758
 H        -1.610405        -0.290705         2.884445
 H        -5.047629         0.558716         1.608707
 H        -5.028062         2.171344         0.640534
 H        -4.316696        -0.090069        -0.594674
 H        -3.705307         1.473749        -0.885648
 H        -2.829913        -0.694063         1.188619
