19
Iteration:  3796
 O         0.244767        -0.381803         0.234800
 C        -0.942239         0.425589         0.740541
 C        -1.405415         2.034556         0.621805
 C        -2.321346         1.233776         1.691087
 C        -1.039898         0.648790         2.327347
 O        -3.548578         1.776660         2.069967
 C        -4.325822         1.630412         0.849515
 C        -3.671127         0.492795        -0.144901
 C        -2.446214         0.026065         0.710433
 H         0.471154        -0.119178        -0.737888
 H        -0.771250         2.889696         0.889865
 H        -1.950802         2.195281        -0.277907
 H        -0.263099         1.285394         2.764025
 H        -1.106596        -0.194102         3.108618
 H        -5.283732         1.137083         1.255620
 H        -4.497733         2.563470         0.322756
 H        -4.517190        -0.266271        -0.252491
 H        -3.469590         1.003899        -1.074800
 H        -2.584295        -0.927025         1.219358
