19
Iteration:  1456charge 0 multiplicity 1
 O         0.105269        -0.374524         0.094022
 C        -0.912640         0.477220         0.721324
 C        -1.293808         2.003046         0.777256
 C        -2.251957         1.276936         1.723509
 C        -1.131478         0.558620         2.448452
 O        -3.486349         1.768375         2.038605
 C        -4.393277         1.491901         0.872841
 C        -3.683127         0.600419        -0.201906
 C        -2.418522         0.092474         0.631459
 H         0.905318         0.240888         0.206996
 H        -0.644901         2.667421         1.284997
 H        -1.784063         2.360575        -0.211191
 H        -0.268097         0.945392         2.977017
 H        -1.360209        -0.381251         2.836255
 H        -5.392276         1.145126         1.195493
 H        -4.698489         2.380273         0.275862
 H        -4.128486        -0.327672        -0.664870
 H        -3.449057         1.306065        -1.101553
 H        -2.727740        -0.855470         1.040174
