19
Iteration:  4002
 O         0.084622        -0.102579        -0.020956
 C        -0.935379         0.430128         0.742746
 C        -1.166713         1.867690         0.702127
 C        -2.322876         1.273346         1.682755
 C        -1.123708         0.635672         2.491678
 O        -3.501245         1.935084         1.968115
 C        -4.376195         1.446384         0.781955
 C        -3.598078         0.394489        -0.066069
 C        -2.452581        -0.000391         0.838873
 H        -0.250921        -0.932672        -0.314847
 H        -0.415976         2.554756         1.109976
 H        -1.565080         2.242912        -0.227544
 H        -0.554800         1.403389         2.905341
 H        -1.172456        -0.245312         3.148151
 H        -5.283795         1.110777         1.315012
 H        -4.809227         2.344800         0.261613
 H        -4.420187        -0.447630        -0.217180
 H        -3.182431         0.830851        -1.043633
 H        -2.631124        -0.941904         1.449597
