19
Iteration:  2625charge 0 multiplicity 1
 O         0.073973        -0.199914         0.142973
 C        -0.899564         0.435654         0.829880
 C        -1.248774         1.891983         0.670887
 C        -2.230090         1.287813         1.708400
 C        -1.152607         0.501010         2.352708
 O        -3.487669         1.702904         2.039557
 C        -4.344687         1.636133         0.837639
 C        -3.637411         0.539595        -0.207206
 C        -2.476202         0.059479         0.707108
 H         0.346567         0.383844        -0.537155
 H        -0.503371         2.620127         1.091394
 H        -1.708630         2.358850        -0.288391
 H        -0.481250         0.899101         3.040019
 H        -1.543659        -0.381002         2.970623
 H        -5.426797         1.367869         1.227763
 H        -4.397071         2.678943         0.527156
 H        -4.366440        -0.357022        -0.211499
 H        -3.356533         0.906792        -1.200001
 H        -2.730759        -0.953648         1.303178
