19
Iteration:   153
 O         0.035116        -0.337004         0.047912
 C        -0.933318         0.451674         0.738965
 C        -1.227816         2.001906         0.973301
 C        -2.265453         1.178726         1.803634
 C        -1.141191         0.456822         2.410482
 O        -3.646318         1.596475         2.014820
 C        -4.339330         1.651129         0.763047
 C        -3.515551         0.686395        -0.307798
 C        -2.411446         0.181573         0.694264
 H         0.717765         0.294607        -0.324245
 H        -0.431932         2.628586         1.461839
 H        -1.679407         2.585133         0.174674
 H        -0.422216         1.037385         3.043678
 H        -1.349125        -0.535325         2.838632
 H        -5.408381         1.337951         0.956625
 H        -4.395943         2.692551         0.376240
 H        -3.989037        -0.175604        -0.667189
 H        -3.269987         1.273382        -1.144919
 H        -2.654355        -0.806531         1.006422
