19
Iteration:  3965charge 0 multiplicity 1
 O         0.075280        -0.303444         0.126662
 C        -0.968268         0.458502         0.733497
 C        -1.240132         1.975709         0.591862
 C        -2.314300         1.350762         1.692813
 C        -1.036104         0.617400         2.341716
 O        -3.546396         1.872589         2.035305
 C        -4.449776         1.322026         0.863788
 C        -3.520492         0.580232        -0.130112
 C        -2.465628         0.114637         0.780060
 H         0.240092        -1.166124         0.597848
 H        -0.502610         2.720677         1.023886
 H        -1.776277         2.211145        -0.344166
 H        -0.256855         1.271593         2.918871
 H        -1.114288        -0.416235         2.797115
 H        -4.959188         0.549603         1.306679
 H        -4.866449         2.178362         0.385347
 H        -4.088543        -0.170556        -0.561667
 H        -3.126714         1.228475        -0.885253
 H        -2.741759        -0.738732         1.318208
