19
Iteration:   902charge 0 multiplicity 1
 O        -0.005954        -0.224546         0.100934
 C        -0.931727         0.517947         0.791854
 C        -1.316348         1.989331         0.729078
 C        -2.283293         1.209399         1.771726
 C        -1.106961         0.465571         2.375181
 O        -3.469887         1.685084         1.963748
 C        -4.361631         1.577344         0.811912
 C        -3.576452         0.633015        -0.136770
 C        -2.417553         0.050316         0.733487
 H         0.880076         0.032952         0.058510
 H        -0.521786         2.759846         0.983160
 H        -1.788499         2.250271        -0.165924
 H        -0.382826         0.973579         3.043966
 H        -1.427262        -0.568608         2.714990
 H        -5.306501         1.116703         1.114639
 H        -4.575206         2.563092         0.338444
 H        -4.320604        -0.178795        -0.518084
 H        -3.167163         1.171652        -0.997387
 H        -2.516595        -1.010398         1.111656
