19
Iteration:  3941
 O         0.105878        -0.324164         0.248141
 C        -0.912559         0.446752         0.722410
 C        -1.207117         1.938814         0.598390
 C        -2.318666         1.321395         1.541233
 C        -1.123903         0.664153         2.315713
 O        -3.474536         1.799081         1.997321
 C        -4.492758         1.350278         1.093440
 C        -3.605243         0.640315        -0.199235
 C        -2.421582         0.101715         0.617733
 H         0.506120        -0.820145         0.920552
 H        -0.531229         2.647603         1.076075
 H        -1.662860         2.209690        -0.406714
 H        -0.463323         1.464020         2.765576
 H        -1.384357        -0.098034         3.103003
 H        -4.942498         0.504141         1.596992
 H        -5.002911         2.213646         0.748494
 H        -4.313353        -0.059202        -0.654485
 H        -3.318975         1.392025        -0.886575
 H        -2.667317        -0.815975         1.160412
