19
Iteration:  3873
 O         0.103575        -0.184514         0.092251
 C        -0.870859         0.469043         0.791686
 C        -1.209597         1.920784         0.690629
 C        -2.224490         1.255852         1.660929
 C        -1.139675         0.560717         2.442282
 O        -3.448094         1.935309         1.821359
 C        -4.436503         1.347384         0.990145
 C        -3.705608         0.570600        -0.147257
 C        -2.496196         0.072188         0.740428
 H         0.088748        -1.048758         0.551139
 H        -0.618233         2.753008         1.061315
 H        -1.666480         2.117389        -0.261730
 H        -0.409992         1.197050         2.886194
 H        -1.447595        -0.419759         2.835565
 H        -4.836633         0.491722         1.555855
 H        -5.004977         2.171471         0.648843
 H        -4.410278        -0.151782        -0.713624
 H        -3.260833         1.211805        -0.904665
 H        -2.584493        -0.883643         1.322370
