19
Iteration:  1103charge 0 multiplicity 1
 O         0.057124        -0.214928         0.087472
 C        -0.903306         0.404439         0.895178
 C        -1.358205         1.922951         0.618227
 C        -2.245624         1.242625         1.668592
 C        -1.185508         0.534203         2.414903
 O        -3.470307         1.687543         2.099046
 C        -4.255448         1.595147         0.811524
 C        -3.572747         0.601607        -0.219398
 C        -2.516282         0.060232         0.733028
 H         0.731588         0.497530        -0.071028
 H        -0.830814         2.697746         1.104426
 H        -1.781805         2.097276        -0.355268
 H        -0.468784         1.064100         3.064307
 H        -1.352889        -0.371704         3.026093
 H        -5.267453         1.192359         1.053880
 H        -4.272990         2.551587         0.295978
 H        -4.333914        -0.069940        -0.620426
 H        -3.136242         1.050047        -1.129640
 H        -2.893389        -0.816645         1.221713
