19
Iteration:  3999charge 0 multiplicity 1
 O         0.073730        -0.108488        -0.020296
 C        -0.932733         0.406447         0.780155
 C        -1.162753         1.869302         0.701498
 C        -2.331628         1.291648         1.682191
 C        -1.069190         0.645068         2.505126
 O        -3.513903         1.920952         1.954002
 C        -4.399461         1.431843         0.787127
 C        -3.606098         0.418773        -0.061250
 C        -2.460481        -0.001183         0.825254
 H        -0.207354        -1.034409        -0.363998
 H        -0.474062         2.674248         1.055304
 H        -1.478457         2.270377        -0.260683
 H        -0.378700         1.418163         2.979221
 H        -1.190866        -0.321441         3.096229
 H        -5.262571         1.091744         1.211498
 H        -4.834003         2.253467         0.236454
 H        -4.321230        -0.300018        -0.286169
 H        -3.274958         0.858361        -1.006331
 H        -2.647087        -0.846123         1.389946
