19
Iteration:   966
 O         0.114215        -0.386202         0.125044
 C        -0.839822         0.523936         0.821873
 C        -1.220616         2.047472         0.702033
 C        -2.293737         1.284678         1.623879
 C        -1.280980         0.458968         2.308839
 O        -3.468253         1.842080         1.978705
 C        -4.432625         1.331676         1.020430
 C        -3.615937         0.675448        -0.184547
 C        -2.435435         0.151691         0.654394
 H         0.959686         0.079697         0.276580
 H        -0.398638         2.724338         1.204814
 H        -1.490995         2.320834        -0.294117
 H        -0.710539         0.829628         3.152373
 H        -1.575345        -0.506703         2.566334
 H        -5.042421         0.689061         1.646790
 H        -5.024243         2.203028         0.672205
 H        -4.275622        -0.065005        -0.823749
 H        -3.337940         1.399187        -0.954209
 H        -2.671966        -0.858569         1.160753
