19
Iteration:  1152
 O         0.061654        -0.249763         0.021815
 C        -0.845526         0.445331         0.812886
 C        -1.342048         1.995963         0.882477
 C        -2.312146         1.285312         1.719194
 C        -1.031993         0.485135         2.342231
 O        -3.591549         1.718184         2.010130
 C        -4.276253         1.631214         0.744604
 C        -3.721274         0.473196        -0.160241
 C        -2.444397         0.088980         0.737229
 H         0.958135         0.124149         0.175915
 H        -0.542057         2.652202         1.276218
 H        -1.665257         2.244511        -0.154791
 H        -0.279836         1.011128         2.947855
 H        -1.253399        -0.421714         2.932735
 H        -5.316654         1.687844         1.008992
 H        -3.930104         2.562037         0.189343
 H        -4.326893        -0.412335        -0.330439
 H        -3.393237         0.826389        -1.159957
 H        -2.761238        -0.838706         1.294959
