19
Iteration:  2160
 O         0.107731        -0.238828         0.195297
 C        -0.927754         0.493013         0.831005
 C        -1.196661         1.950246         0.657971
 C        -2.351820         1.207966         1.727624
 C        -1.065840         0.454863         2.356030
 O        -3.535317         1.726767         2.076757
 C        -4.368266         1.576904         0.858401
 C        -3.602677         0.609693        -0.256826
 C        -2.479132         0.107802         0.675365
 H         0.061390        -0.282246        -0.775906
 H        -0.482107         2.657915         1.132823
 H        -1.621117         2.292685        -0.326300
 H        -0.118879         0.876528         2.870545
 H        -1.181921        -0.466718         2.804105
 H        -5.281075         1.018245         1.089068
 H        -4.602868         2.597744         0.471426
 H        -4.275399        -0.125105        -0.434425
 H        -3.485063         1.363564        -0.976246
 H        -2.926893        -0.751607         1.240941
