19
Iteration:  4248charge 0 multiplicity 1
 O         0.208968        -0.165406         0.199899
 C        -0.983706         0.341614         0.730073
 C        -1.179825         1.855438         0.633991
 C        -2.316291         1.299157         1.569399
 C        -1.093347         0.587640         2.350428
 O        -3.473076         1.938855         1.936880
 C        -4.499786         1.381333         1.077030
 C        -3.676837         0.625589        -0.130745
 C        -2.495998         0.029103         0.639864
 H         0.665905        -0.811110         0.767297
 H        -0.507407         2.574049         1.018688
 H        -1.574252         2.237230        -0.258591
 H        -0.316962         1.208587         2.796120
 H        -1.291679        -0.229111         2.968938
 H        -5.089080         0.625026         1.639806
 H        -5.000087         2.294449         0.675654
 H        -4.220104        -0.177205        -0.722262
 H        -3.448363         1.279251        -1.019242
 H        -2.704464        -1.008359         1.132972
