19
Iteration:  2014
 O         0.079915        -0.292270         0.115272
 C        -0.930763         0.436099         0.720106
 C        -1.288831         1.973616         0.716918
 C        -2.342855         1.212956         1.710037
 C        -1.054713         0.502723         2.352588
 O        -3.484088         1.808310         2.021982
 C        -4.430061         1.532901         0.886654
 C        -3.521845         0.626266        -0.165789
 C        -2.507129         0.042602         0.685459
 H         0.917575         0.263481         0.103537
 H        -0.581573         2.535034         1.264238
 H        -1.481256         2.410793        -0.222464
 H        -0.367564         1.053132         2.953157
 H        -1.565187        -0.421798         2.943973
 H        -5.313793         0.979674         1.364047
 H        -5.024146         2.445771         0.394892
 H        -4.156181        -0.071223        -0.658352
 H        -3.013970         1.317877        -0.847645
 H        -2.697980        -0.904057         1.268283
