19
Iteration:  3314charge 0 multiplicity 1
 O         0.250431        -0.280346         0.243917
 C        -0.845054         0.422549         0.747350
 C        -1.178121         1.924833         0.662861
 C        -2.239025         1.347238         1.635871
 C        -1.280335         0.455182         2.303823
 O        -3.448663         1.952609         1.963066
 C        -4.483582         1.252521         1.028490
 C        -3.772212         0.698078        -0.168844
 C        -2.425937         0.196591         0.576689
 H        -0.008645        -1.140011         0.509259
 H        -0.396682         2.714011         1.091363
 H        -1.560807         2.368502        -0.304537
 H        -0.466342         0.798822         2.976379
 H        -1.653435        -0.444448         2.727457
 H        -4.700990         0.460640         1.780574
 H        -5.420704         1.879697         0.848802
 H        -4.270973         0.037936        -0.878124
 H        -3.466418         1.589837        -0.842067
 H        -2.843654        -0.776566         0.974446
