19
Iteration:  3726
 O         0.189247        -0.228450         0.167119
 C        -0.896911         0.442380         0.818720
 C        -1.389622         2.007306         0.687950
 C        -2.323299         1.217162         1.668317
 C        -1.065376         0.512697         2.287029
 O        -3.556697         1.781940         1.966394
 C        -4.249122         1.678942         0.770823
 C        -3.698525         0.429138        -0.010657
 C        -2.477426        -0.020637         0.787719
 H         0.173582        -0.038001        -0.836140
 H        -0.848942         2.833791         1.138937
 H        -1.792355         2.346342        -0.299784
 H        -0.312933         1.128767         2.746729
 H        -1.089621        -0.253817         2.972235
 H        -5.278034         1.603801         1.110909
 H        -4.093941         2.693602         0.315794
 H        -4.446057        -0.327626        -0.046492
 H        -3.204717         0.753942        -1.057029
 H        -2.686978        -1.009534         1.339463
