19
Iteration:   771
 O         0.071384        -0.341510         0.101447
 C        -0.885130         0.508154         0.752564
 C        -1.173526         2.019826         0.701650
 C        -2.294951         1.307071         1.725933
 C        -1.177947         0.486116         2.404912
 O        -3.552205         1.697104         2.130089
 C        -4.387598         1.477663         0.856042
 C        -3.602013         0.564770        -0.277751
 C        -2.457867         0.194964         0.712386
 H         0.792856         0.080263        -0.375161
 H        -0.462214         2.691209         1.247458
 H        -1.573750         2.365871        -0.165985
 H        -0.416302         1.106721         3.027439
 H        -1.546476        -0.485594         2.802598
 H        -5.384583         1.279520         1.267150
 H        -4.515647         2.429741         0.275621
 H        -4.158754        -0.364196        -0.551202
 H        -3.365544         1.173711        -1.086413
 H        -2.594797        -0.879126         0.985883
