19
Iteration:  1685
 O         0.071994        -0.281211         0.037358
 C        -0.865104         0.402793         0.776473
 C        -1.224173         1.997698         0.796591
 C        -2.286496         1.343151         1.667681
 C        -1.144708         0.455796         2.382868
 O        -3.501305         1.839563         1.972054
 C        -4.471002         1.422229         0.897878
 C        -3.627910         0.621472        -0.189202
 C        -2.443019         0.048100         0.751484
 H         0.965919         0.136106         0.342639
 H        -0.463813         2.697576         1.134636
 H        -1.569535         2.295716        -0.252051
 H        -0.380511         1.023271         2.906440
 H        -1.138707        -0.526942         2.882607
 H        -5.258485         0.911589         1.290097
 H        -4.962302         2.262411         0.463113
 H        -4.226062        -0.033413        -0.810487
 H        -3.283037         1.453536        -0.840061
 H        -2.732767        -0.854720         1.357336
