19
Iteration:  2537charge 0 multiplicity 1
 O         0.194643        -0.191794         0.047547
 C        -0.944434         0.467655         0.771244
 C        -1.146508         1.960166         0.731590
 C        -2.318148         1.227265         1.679384
 C        -1.172150         0.498324         2.407571
 O        -3.558148         1.707841         2.063678
 C        -4.318499         1.686013         0.836775
 C        -3.637802         0.496748        -0.090391
 C        -2.473327         0.033964         0.702330
 H        -0.100373        -0.600668        -0.734017
 H        -0.642898         2.734653         1.342874
 H        -1.589284         2.565757        -0.180115
 H        -0.573396         1.161330         2.996691
 H        -1.368134        -0.505256         2.797423
 H        -5.469015         1.556158         1.047285
 H        -4.351231         2.612093         0.295842
 H        -4.415069        -0.286265        -0.322352
 H        -3.353990         0.782176        -1.128551
 H        -2.844705        -0.923476         1.282492
