19
Iteration:  2029charge 0 multiplicity 1
 O         0.142139        -0.337077         0.118006
 C        -0.902565         0.409761         0.770466
 C        -1.175689         1.948708         0.738182
 C        -2.259914         1.307069         1.681551
 C        -1.148238         0.427001         2.326967
 O        -3.568092         1.872019         2.052135
 C        -4.479733         1.412574         0.877764
 C        -3.644839         0.666470        -0.164140
 C        -2.432260         0.158728         0.727902
 H         0.907090         0.275425        -0.156944
 H        -0.443939         2.688145         1.215345
 H        -1.683725         2.448452        -0.145353
 H        -0.348547         1.031135         2.849676
 H        -1.319220        -0.545696         2.617679
 H        -5.302877         0.812358         1.212679
 H        -4.822550         2.403522         0.471126
 H        -4.162496        -0.249204        -0.695037
 H        -3.441307         1.219512        -1.096277
 H        -2.713521        -0.812523         1.140514
