19
Iteration:    98charge 0 multiplicity 1
 O         0.267739        -0.190871         0.150257
 C        -0.903902         0.294829         0.762824
 C        -1.114856         1.939091         0.837974
 C        -2.232276         1.227610         1.659044
 C        -1.232456         0.273459         2.387208
 O        -3.549191         1.900038         1.979061
 C        -4.464601         1.401247         0.914132
 C        -3.714627         0.853209        -0.237619
 C        -2.508264         0.120346         0.573340
 H         0.891227         0.385462         0.510531
 H        -0.426668         2.531772         1.423187
 H        -1.544298         2.333684        -0.103744
 H        -0.526792         0.748315         3.050848
 H        -1.784156        -0.584102         2.905703
 H        -5.109679         0.529228         1.235111
 H        -5.071106         2.185696         0.460567
 H        -4.320034         0.189510        -0.813378
 H        -3.365302         1.634303        -0.831032
 H        -2.845800        -0.820535         0.959910
