19
Iteration:  4771
 O         0.122789        -0.235402         0.070668
 C        -0.867701         0.416250         0.812525
 C        -1.401299         1.840117         0.579163
 C        -2.307319         1.191721         1.652317
 C        -0.986390         0.603901         2.431268
 O        -3.496813         1.873268         2.068563
 C        -4.350966         1.607260         0.774063
 C        -3.643391         0.503911        -0.073858
 C        -2.510750         0.012075         0.800232
 H         0.878524         0.296773         0.083291
 H        -0.864728         2.756099         0.807069
 H        -1.973793         1.804849        -0.390928
 H        -0.337979         1.423982         2.868643
 H        -1.257109        -0.353930         2.939430
 H        -5.357520         1.463084         1.142024
 H        -4.351224         2.460813         0.266399
 H        -4.557107        -0.303947        -0.218971
 H        -3.514206         0.955093        -1.041073
 H        -2.527363        -1.017553         1.245379
