19
Iteration:   563charge 0 multiplicity 1
 O         0.069905        -0.203828         0.110083
 C        -1.016378         0.475060         0.762642
 C        -1.282033         1.951559         0.810355
 C        -2.339862         1.240199         1.746501
 C        -1.081164         0.479663         2.328283
 O        -3.569661         1.669586         2.105500
 C        -4.236231         1.655572         0.764908
 C        -3.588632         0.446711        -0.233649
 C        -2.469151         0.133538         0.728730
 H         0.683483         0.403539        -0.397669
 H        -0.501799         2.588943         1.359318
 H        -1.556951         2.248329        -0.240348
 H        -0.259155         1.080634         2.866438
 H        -1.150071        -0.464016         2.847075
 H        -5.325615         1.695765         0.988279
 H        -4.030330         2.658266         0.259258
 H        -4.236260        -0.478859        -0.299548
 H        -3.470755         0.884818        -1.188651
 H        -2.667083        -0.867616         1.104741
