19
Iteration:  2503
 O         0.100264        -0.186410         0.150149
 C        -0.992273         0.447188         0.777599
 C        -1.236748         1.974112         0.723999
 C        -2.309602         1.213665         1.707897
 C        -1.026750         0.417199         2.363918
 O        -3.522774         1.819580         2.047157
 C        -4.386301         1.570336         0.833582
 C        -3.557719         0.562709        -0.213982
 C        -2.466972         0.081886         0.706583
 H        -0.260117        -0.705273        -0.539371
 H        -0.552346         2.682411         1.225558
 H        -1.887799         2.346446        -0.092994
 H        -0.272347         1.031979         2.909855
 H        -1.199326        -0.488507         2.833419
 H        -5.295843         1.128219         1.382091
 H        -4.543308         2.484244         0.307228
 H        -4.222236        -0.243324        -0.449991
 H        -3.219783         1.166205        -1.113726
 H        -2.729489        -0.937155         1.224331
