19
Iteration:   612
 O         0.030660        -0.154173        -0.042885
 C        -0.929060         0.352890         0.874866
 C        -1.230863         1.895654         0.781208
 C        -2.256787         1.183925         1.709418
 C        -1.129567         0.526108         2.506260
 O        -3.546680         1.838878         2.034261
 C        -4.356843         1.516673         0.853663
 C        -3.589860         0.592200        -0.261111
 C        -2.433590         0.046891         0.660698
 H         0.849862         0.364704         0.044143
 H        -0.510890         2.471628         1.268753
 H        -1.851762         2.216705        -0.044891
 H        -0.483608         1.224804         2.938004
 H        -1.360365        -0.390251         3.141871
 H        -5.282225         1.063981         1.217226
 H        -4.576226         2.457819         0.404410
 H        -4.079525        -0.280235        -0.650374
 H        -3.211470         1.245202        -1.163082
 H        -2.785436        -0.906958         1.113167
