19
Iteration:  2202
 O         0.202997        -0.210802         0.096352
 C        -0.915506         0.434599         0.783753
 C        -1.388135         1.916197         0.715813
 C        -2.304828         1.146424         1.686193
 C        -1.129090         0.503687         2.400031
 O        -3.538180         1.725540         2.103562
 C        -4.238593         1.737613         0.811935
 C        -3.667879         0.564152        -0.199028
 C        -2.494126         0.009550         0.722689
 H         0.251049         0.230016        -0.722749
 H        -0.717809         2.597319         1.178372
 H        -1.743645         2.178762        -0.267721
 H        -0.594999         1.198999         3.202413
 H        -1.147931        -0.491228         2.835013
 H        -5.299491         1.656574         1.066716
 H        -4.130885         2.785105         0.353062
 H        -4.454374        -0.162658        -0.312273
 H        -3.091585         0.820488        -1.117703
 H        -2.711184        -1.006001         1.170223
