19
Iteration:  4036charge 0 multiplicity 1
 O         0.107574        -0.105883         0.048221
 C        -0.881731         0.455296         0.825570
 C        -1.313570         1.928108         0.615844
 C        -2.235642         1.304090         1.699152
 C        -1.054962         0.541079         2.394650
 O        -3.555785         1.793543         2.001347
 C        -4.334934         1.579363         0.736432
 C        -3.709805         0.427959        -0.005790
 C        -2.409261         0.024897         0.793332
 H         0.044704        -1.068376         0.298585
 H        -0.630678         2.736306         0.853689
 H        -1.824344         2.041406        -0.355141
 H        -0.425995         1.235804         2.878037
 H        -1.207089        -0.353775         2.960590
 H        -5.389300         1.378599         1.093805
 H        -4.202134         2.492627         0.126758
 H        -4.447156        -0.529391        -0.067706
 H        -3.520680         0.650801        -1.105749
 H        -2.606422        -0.908626         1.446924
