19
Iteration:  1691charge 0 multiplicity 1
 O         0.089880        -0.279463         0.051987
 C        -0.888347         0.372817         0.801327
 C        -1.269376         1.968483         0.772647
 C        -2.286670         1.319364         1.706867
 C        -1.116581         0.453360         2.330464
 O        -3.527796         1.845181         1.933998
 C        -4.445815         1.421672         0.899031
 C        -3.572095         0.658335        -0.177069
 C        -2.472630         0.091888         0.748799
 H         0.958626         0.116049         0.198613
 H        -0.468043         2.628174         1.160874
 H        -1.599877         2.384548        -0.154907
 H        -0.273296         1.039757         2.882397
 H        -1.270587        -0.389467         3.047224
 H        -5.148483         0.644251         1.510718
 H        -5.045838         2.389541         0.609049
 H        -4.225504        -0.053315        -0.729859
 H        -3.236958         1.397475        -0.896682
 H        -2.732644        -0.845412         1.239013
