19
Iteration:  3845charge 0 multiplicity 1
 O         0.093412        -0.256777         0.042551
 C        -0.923773         0.384919         0.784480
 C        -1.185695         1.863655         0.704469
 C        -2.240225         1.423122         1.679096
 C        -1.126226         0.662124         2.351985
 O        -3.617868         1.879652         2.011286
 C        -4.443856         1.331975         0.894892
 C        -3.549230         0.541343        -0.121224
 C        -2.414688         0.120975         0.794391
 H        -0.363424        -0.916119        -0.439497
 H        -0.429968         2.550457         1.146258
 H        -1.462206         2.165302        -0.365861
 H        -0.177060         1.192661         2.806591
 H        -1.413666        -0.118046         3.124310
 H        -5.159512         0.610892         1.292616
 H        -4.827735         2.229021         0.284747
 H        -4.097366        -0.233247        -0.584133
 H        -3.133895         1.214977        -0.926392
 H        -2.603841        -0.794371         1.379006
