19
Iteration:  1204charge 0 multiplicity 1
 O         0.153918        -0.193392         0.107164
 C        -0.886410         0.357552         0.810371
 C        -1.341026         1.854529         0.700115
 C        -2.311986         1.271541         1.634350
 C        -1.022055         0.511995         2.376493
 O        -3.602229         1.657993         2.061194
 C        -4.361459         1.711287         0.850267
 C        -3.645769         0.621259        -0.125207
 C        -2.443685        -0.001542         0.666345
 H         0.944888         0.214374         0.428877
 H        -0.809984         2.718237         1.164905
 H        -1.799438         2.192995        -0.160708
 H        -0.103569         1.277977         2.623058
 H        -1.368645        -0.290183         2.975331
 H        -5.487007         1.659718         1.022967
 H        -4.318009         2.677670         0.280513
 H        -4.230482        -0.269269        -0.536599
 H        -3.334914         1.093358        -1.000814
 H        -2.836613        -0.843244         1.191836
