19
Iteration:  3595charge 0 multiplicity 1
 O         0.142349        -0.230957         0.120871
 C        -0.900124         0.382171         0.811375
 C        -1.167887         1.882262         0.726116
 C        -2.251612         1.311303         1.552311
 C        -1.264962         0.552034         2.390054
 O        -3.429194         1.964161         1.947555
 C        -4.470732         1.288993         1.049112
 C        -3.699843         0.665889        -0.185508
 C        -2.426600         0.125959         0.606875
 H         0.371978        -0.985651         0.713305
 H        -0.449200         2.579296         1.148996
 H        -1.466232         2.182887        -0.275036
 H        -0.471762         1.225415         2.856035
 H        -1.659874        -0.310717         2.948337
 H        -4.688742         0.386523         1.605573
 H        -5.271082         2.041215         0.870058
 H        -4.248483        -0.056674        -0.773307
 H        -3.496782         1.402122        -1.110454
 H        -2.508371        -0.890176         1.144040
