19
Iteration:  2445charge 0 multiplicity 1
 O         0.120665        -0.331123         0.239557
 C        -0.895263         0.435971         0.764247
 C        -1.093503         1.916345         0.700331
 C        -2.298765         1.294251         1.632010
 C        -1.092208         0.524765         2.315276
 O        -3.541162         1.751531         2.044623
 C        -4.438563         1.409851         0.918656
 C        -3.688598         0.720644        -0.178514
 C        -2.498647         0.186975         0.643071
 H         0.287940        -0.043095        -0.738337
 H        -0.517193         2.685841         1.200329
 H        -1.390008         2.317534        -0.217804
 H        -0.287518         1.065186         2.978103
 H        -1.319614        -0.481931         2.807026
 H        -5.150509         0.744552         1.427467
 H        -5.067011         2.285676         0.593867
 H        -4.342718        -0.060718        -0.586226
 H        -3.490036         1.470457        -1.122990
 H        -2.590150        -0.782931         1.211443
