19
Iteration:  4838
 O         0.123928        -0.311593         0.184739
 C        -0.872240         0.461803         0.758200
 C        -1.323679         1.974029         0.626006
 C        -2.255933         1.284685         1.629690
 C        -1.009548         0.607926         2.357649
 O        -3.529875         1.800694         1.991307
 C        -4.392528         1.571440         0.861448
 C        -3.667995         0.528809        -0.015631
 C        -2.455183         0.059969         0.725158
 H        -0.097768        -0.728544        -0.710005
 H        -0.672988         2.736367         1.109583
 H        -1.837106         2.185848        -0.324203
 H        -0.392041         1.397826         2.890322
 H        -1.145078        -0.365758         2.956571
 H        -5.302502         1.105366         1.208776
 H        -4.638677         2.440168         0.366757
 H        -4.241391        -0.505343        -0.191339
 H        -3.494318         0.783784        -1.040145
 H        -2.614827        -0.937848         1.246085
