19
Iteration:     6
 O         0.061509        -0.240049         0.103068
 C        -0.927017         0.386760         0.776238
 C        -1.195898         1.963869         0.816124
 C        -2.316218         1.203409         1.734075
 C        -1.208229         0.422675         2.390475
 O        -3.564053         1.755363         1.997132
 C        -4.383785         1.468314         0.818513
 C        -3.538218         0.769007        -0.198169
 C        -2.456425         0.148926         0.635863
 H         0.983746         0.007660         0.300918
 H        -0.452783         2.578743         1.371359
 H        -1.458762         2.246172        -0.241289
 H        -0.365759         0.965702         2.939157
 H        -1.315732        -0.544741         2.937648
 H        -5.215797         0.832875         1.178417
 H        -4.716080         2.485375         0.528684
 H        -4.127575         0.033122        -0.774505
 H        -2.972305         1.482088        -0.879915
 H        -2.682188        -0.893349         0.991236
