19
Iteration:   314charge 0 multiplicity 1
 O         0.132694        -0.171535         0.124828
 C        -0.971431         0.376377         0.744361
 C        -1.226203         1.912685         0.789781
 C        -2.323775         1.287397         1.739058
 C        -1.191081         0.433553         2.340294
 O        -3.552939         1.851793         2.070965
 C        -4.394134         1.362123         0.838790
 C        -3.403287         0.734788        -0.215801
 C        -2.501304         0.056951         0.708214
 H        -0.008761        -0.446713        -0.878665
 H        -0.612668         2.614937         1.315998
 H        -1.404290         2.339187        -0.208022
 H        -0.275621         0.836445         2.824400
 H        -1.595373        -0.426632         2.926690
 H        -5.312449         0.839172         1.208670
 H        -4.754414         2.348720         0.538872
 H        -4.006450         0.185858        -1.029818
 H        -2.887281         1.545979        -0.736645
 H        -2.945973        -0.889189         1.211534
