19
Iteration:  2542charge 0 multiplicity 1
 O         0.160469        -0.166741         0.089297
 C        -0.927445         0.453946         0.716279
 C        -1.175407         1.960163         0.713857
 C        -2.284195         1.224907         1.703439
 C        -1.205036         0.516772         2.418964
 O        -3.542072         1.695777         2.080901
 C        -4.322994         1.707976         0.842082
 C        -3.638264         0.468514        -0.106394
 C        -2.500630         0.012564         0.690122
 H        -0.062911        -0.606313        -0.802426
 H        -0.676062         2.710143         1.349906
 H        -1.443853         2.465275        -0.187891
 H        -0.493313         1.218202         2.964766
 H        -1.388452        -0.537996         2.711559
 H        -5.338698         1.552300         0.999064
 H        -4.215608         2.751716         0.370699
 H        -4.335782        -0.310547        -0.397180
 H        -3.325108         0.794196        -1.110767
 H        -2.627382        -0.845255         1.280546
