19
Iteration:  1056
 O         0.056976        -0.284717         0.152221
 C        -0.926563         0.449579         0.816518
 C        -1.230152         2.046144         0.774005
 C        -2.288830         1.271304         1.593406
 C        -1.039442         0.447968         2.349554
 O        -3.451463         1.773116         2.001578
 C        -4.466916         1.502618         0.852174
 C        -3.672258         0.585180        -0.207379
 C        -2.461454         0.097597         0.716483
 H         0.946860         0.172400         0.282206
 H        -0.503826         2.636874         1.312521
 H        -1.487508         2.320144        -0.291222
 H        -0.361639         0.931932         2.934882
 H        -1.367622        -0.465503         2.867469
 H        -5.253375         0.897204         1.251753
 H        -4.835996         2.450945         0.456507
 H        -4.247558        -0.244085        -0.595203
 H        -3.478693         1.268266        -1.111830
 H        -2.736230        -0.793311         1.327541
