19
Iteration:  2661
 O         0.134483        -0.274220         0.124025
 C        -0.918350         0.366261         0.744590
 C        -1.229672         1.915400         0.794683
 C        -2.268159         1.230124         1.723185
 C        -1.064704         0.528500         2.337239
 O        -3.521554         1.893758         1.985693
 C        -4.467315         1.521097         0.881646
 C        -3.585815         0.605861        -0.220544
 C        -2.525103         0.048765         0.765819
 H         0.417138         0.296736        -0.546309
 H        -0.459755         2.556500         1.425321
 H        -1.739708         2.487199        -0.046377
 H        -0.324277         1.134314         2.818458
 H        -1.275747        -0.464217         2.725864
 H        -5.158546         0.792480         1.294243
 H        -4.871399         2.498860         0.413638
 H        -4.237452        -0.184998        -0.551569
 H        -3.238063         1.146955        -1.077904
 H        -2.871235        -0.973464         1.107746
