19
Iteration:  1458
 O         0.105625        -0.370975         0.109923
 C        -0.926878         0.473245         0.708364
 C        -1.303991         1.996544         0.767892
 C        -2.256774         1.260639         1.741859
 C        -1.129291         0.575116         2.428374
 O        -3.493966         1.764506         2.026450
 C        -4.389107         1.487017         0.889667
 C        -3.664093         0.613742        -0.193508
 C        -2.401696         0.084182         0.626236
 H         0.876766         0.176497         0.203217
 H        -0.642143         2.645374         1.243145
 H        -1.747010         2.433090        -0.169876
 H        -0.293438         0.967809         2.946508
 H        -1.359538        -0.447530         2.873929
 H        -5.446273         1.191572         1.190145
 H        -4.643944         2.414942         0.258768
 H        -4.096749        -0.248030        -0.628429
 H        -3.540637         1.294108        -1.103310
 H        -2.694451        -0.820665         1.013883
