19
Iteration:  2263charge 0 multiplicity 1
 O         0.202685        -0.202327         0.162360
 C        -0.930177         0.427199         0.777145
 C        -1.340679         1.949272         0.784845
 C        -2.338550         1.173629         1.717940
 C        -1.042948         0.437521         2.344735
 O        -3.535247         1.789711         2.055808
 C        -4.266732         1.701321         0.762678
 C        -3.732976         0.555834        -0.095781
 C        -2.510972         0.024043         0.673767
 H         0.302882        -0.044597        -0.758966
 H        -0.676695         2.674844         1.331693
 H        -1.622541         2.366482        -0.197215
 H        -0.416084         1.100639         2.771686
 H        -1.119718        -0.606042         2.741719
 H        -5.319360         1.591743         0.977543
 H        -4.102936         2.562855         0.170465
 H        -4.329920        -0.341380        -0.343455
 H        -3.483596         0.869213        -1.077852
 H        -2.618050        -1.002325         0.956337
