19
Iteration:  3486charge 0 multiplicity 1
 O         0.296284        -0.213781         0.126475
 C        -0.881579         0.400407         0.751731
 C        -1.328716         1.887594         0.698465
 C        -2.306590         1.210070         1.729848
 C        -1.082501         0.505013         2.344856
 O        -3.562613         1.767472         2.017428
 C        -4.312325         1.731531         0.777429
 C        -3.672764         0.515422        -0.113893
 C        -2.609750         0.011388         0.831960
 H         0.418377         0.333551        -0.737498
 H        -0.637615         2.607553         1.139656
 H        -1.926365         2.153893        -0.131412
 H        -0.270765         1.237984         2.775097
 H        -1.315533        -0.384625         3.004946
 H        -5.393922         1.492482         1.019352
 H        -4.339880         2.643266         0.078750
 H        -4.476027        -0.188556        -0.223098
 H        -3.270246         0.853196        -1.180128
 H        -2.853728        -0.954381         1.348959
