19
Iteration:   311
 O         0.137160        -0.180555         0.112362
 C        -0.982078         0.387618         0.739083
 C        -1.225847         1.912993         0.795009
 C        -2.316130         1.311023         1.756274
 C        -1.171020         0.430838         2.352992
 O        -3.566961         1.812318         2.064849
 C        -4.403954         1.373555         0.835725
 C        -3.390280         0.741960        -0.225992
 C        -2.499949         0.063704         0.694442
 H        -0.024363        -0.543524        -0.749267
 H        -0.613605         2.634369         1.250057
 H        -1.496773         2.358511        -0.252375
 H        -0.289293         0.765485         2.875754
 H        -1.569694        -0.426163         3.034031
 H        -5.279608         0.885381         1.277640
 H        -4.781662         2.443885         0.542937
 H        -4.029123         0.120378        -1.022022
 H        -2.853971         1.547432        -0.842351
 H        -2.975140        -0.757173         1.319750
