19
Iteration:  3004
 O         0.165158        -0.226106         0.077935
 C        -0.881701         0.452996         0.829864
 C        -1.186470         1.922729         0.630578
 C        -2.301684         1.202171         1.714462
 C        -1.041303         0.489096         2.376280
 O        -3.573120         1.880270         1.927400
 C        -4.500669         1.435079         0.957977
 C        -3.606983         0.682158        -0.146361
 C        -2.509782         0.103019         0.730142
 H         0.339677        -0.984151         0.630896
 H        -0.425597         2.534734         1.086943
 H        -1.587275         2.135109        -0.401168
 H        -0.314040         0.994090         2.901871
 H        -1.310018        -0.481057         2.750150
 H        -5.287187         0.962084         1.438726
 H        -5.020839         2.304568         0.475819
 H        -4.256176        -0.008508        -0.756635
 H        -3.177145         1.372693        -0.810469
 H        -2.752581        -0.937759         1.113587
