19
Iteration:   484
 O         0.163084        -0.210129         0.163957
 C        -0.875925         0.474133         0.756144
 C        -1.208176         1.925967         0.817217
 C        -2.310076         1.208391         1.721163
 C        -1.119875         0.428935         2.317369
 O        -3.564737         1.787736         2.009530
 C        -4.442372         1.636671         0.831863
 C        -3.637708         0.475598        -0.138084
 C        -2.425257         0.089624         0.660318
 H         0.453369         0.145425        -0.731163
 H        -0.459594         2.649676         1.158994
 H        -1.868545         2.512134        -0.023929
 H        -0.447726         1.081360         2.891541
 H        -1.448030        -0.594691         2.803036
 H        -5.383943         1.211534         1.194821
 H        -4.484165         2.687534         0.346805
 H        -4.408368        -0.200233        -0.466236
 H        -3.375271         1.096703        -1.022894
 H        -2.578707        -0.911284         1.122351
