19
Iteration:  4494
 O         0.139260        -0.207818         0.120371
 C        -0.978837         0.451472         0.714508
 C        -1.154084         1.900630         0.573102
 C        -2.258538         1.267204         1.737448
 C        -1.110694         0.685271         2.436551
 O        -3.505369         1.816291         2.009304
 C        -4.367977         1.429021         0.862494
 C        -3.719419         0.525312        -0.125327
 C        -2.506968         0.075610         0.739719
 H         0.057550        -1.200504         0.277951
 H        -0.342714         2.654719         0.939899
 H        -1.428213         2.373122        -0.424052
 H        -0.275811         1.244986         2.887420
 H        -1.277174        -0.266781         3.025905
 H        -5.311553         0.955539         1.262114
 H        -4.696362         2.456075         0.729987
 H        -4.372170        -0.272712        -0.365622
 H        -3.381746         1.117391        -0.978727
 H        -2.617931        -1.008047         0.941547
