19
Iteration:  3953
 O         0.083648        -0.330754         0.183297
 C        -0.940513         0.477072         0.738672
 C        -1.255050         1.974966         0.536034
 C        -2.276613         1.273584         1.673995
 C        -1.127373         0.701979         2.305558
 O        -3.535177         1.881357         2.073000
 C        -4.359001         1.295166         0.956567
 C        -3.592213         0.630590        -0.181942
 C        -2.445985         0.047378         0.700511
 H         0.258733        -0.937036         0.964969
 H        -0.468557         2.543851         1.083341
 H        -1.369744         2.575332        -0.421316
 H        -0.285901         1.308989         2.826379
 H        -1.398342        -0.275697         2.812643
 H        -5.107678         0.691874         1.411445
 H        -5.077261         2.024719         0.670282
 H        -4.126978        -0.126831        -0.695577
 H        -3.292753         1.319783        -0.924258
 H        -2.610601        -0.941634         1.050229
