19
Iteration:   318
 O         0.129650        -0.169593         0.127810
 C        -0.962212         0.365263         0.766778
 C        -1.232545         1.907979         0.782219
 C        -2.326940         1.249453         1.701849
 C        -1.205791         0.434752         2.332846
 O        -3.535809         1.891178         2.070341
 C        -4.383121         1.366403         0.849889
 C        -3.449162         0.726857        -0.206948
 C        -2.496391         0.047410         0.731654
 H        -0.010404        -0.225981        -0.785098
 H        -0.501648         2.569624         1.439967
 H        -1.353846         2.355986        -0.176100
 H        -0.335188         0.968550         2.786926
 H        -1.585274        -0.469443         2.742430
 H        -5.247297         0.728683         1.111090
 H        -4.778483         2.272780         0.443297
 H        -3.937556         0.253501        -0.968662
 H        -2.943311         1.570886        -0.622971
 H        -2.798291        -0.949296         1.002776
