19
Iteration:  3307
 O         0.231971        -0.261749         0.238225
 C        -0.871604         0.420297         0.788538
 C        -1.151727         1.923175         0.635443
 C        -2.284342         1.287919         1.606264
 C        -1.255655         0.439048         2.296190
 O        -3.495013         1.950889         1.946513
 C        -4.445336         1.276788         1.055283
 C        -3.702320         0.770396        -0.176662
 C        -2.424930         0.193249         0.616350
 H         0.125076        -1.211887         0.299662
 H        -0.444645         2.619448         0.913469
 H        -1.516247         2.204636        -0.368066
 H        -0.623155         0.993921         2.992353
 H        -1.517815        -0.554002         2.714351
 H        -4.922151         0.414842         1.546756
 H        -5.387469         1.821306         1.003183
 H        -4.266309        -0.121000        -0.647523
 H        -3.589384         1.608779        -0.817868
 H        -2.670599        -0.720912         1.181317
