19
Iteration:  2312charge 0 multiplicity 1
 O         0.176880        -0.292952         0.177610
 C        -0.894722         0.429114         0.748829
 C        -1.237166         1.898308         0.711331
 C        -2.313210         1.214118         1.680325
 C        -1.109894         0.568943         2.286075
 O        -3.602089         1.717577         2.081441
 C        -4.401869         1.571975         0.931310
 C        -3.588070         0.690526        -0.173656
 C        -2.443877         0.079494         0.701102
 H        -0.010647        -0.588401        -0.775419
 H        -0.473018         2.475824         1.188056
 H        -1.632098         2.509149        -0.079886
 H        -0.347362         1.258564         2.741644
 H        -1.383918        -0.309215         2.793554
 H        -5.408149         1.133559         1.077150
 H        -4.537870         2.569560         0.383041
 H        -4.296645         0.052822        -0.746549
 H        -3.115538         1.213796        -1.096380
 H        -2.786238        -0.749187         1.391250
