19
Iteration:  3048charge 0 multiplicity 1
 O         0.242640        -0.219976         0.185813
 C        -0.874109         0.451568         0.694141
 C        -1.110783         1.933766         0.689878
 C        -2.261264         1.308865         1.540411
 C        -1.274590         0.459361         2.400859
 O        -3.459088         1.998197         1.935148
 C        -4.446292         1.321949         1.087544
 C        -3.697085         0.584957        -0.177604
 C        -2.505235         0.098175         0.624243
 H         0.074297        -1.154752         0.032426
 H        -0.534481         2.542848         1.395607
 H        -1.468216         2.491927        -0.243374
 H        -0.628838         0.964320         3.090591
 H        -1.700709        -0.456078         2.810422
 H        -5.040344         0.681855         1.635454
 H        -5.188347         2.137027         0.931173
 H        -4.322395        -0.238062        -0.606126
 H        -3.610932         1.358452        -0.841140
 H        -2.733821        -0.872436         1.171350
