19
Iteration:  2065
 O         0.123953        -0.304858         0.177025
 C        -0.908208         0.426277         0.746223
 C        -1.123338         1.927929         0.771004
 C        -2.307635         1.272392         1.605395
 C        -1.285783         0.523097         2.339589
 O        -3.430458         1.892578         1.990239
 C        -4.460464         1.345291         0.990972
 C        -3.677874         0.732548        -0.202591
 C        -2.440699         0.060348         0.631056
 H         0.571295         0.223512        -0.587744
 H        -0.370160         2.481808         1.402279
 H        -1.466107         2.491711        -0.172423
 H        -0.541010         1.019889         3.000645
 H        -1.295988        -0.489539         2.772823
 H        -4.957273         0.544441         1.613820
 H        -5.150527         1.991687         0.513442
 H        -4.140777        -0.177732        -0.702801
 H        -3.221947         1.622240        -0.720686
 H        -2.738977        -0.769055         1.257785
