19
Iteration:   419
 O         0.171231        -0.272773         0.085974
 C        -0.905694         0.420443         0.795101
 C        -1.271886         1.898857         0.713703
 C        -2.375592         1.239695         1.721204
 C        -1.057158         0.497484         2.360208
 O        -3.623534         1.792522         2.032569
 C        -4.402927         1.403520         0.911058
 C        -3.493227         0.844416        -0.270870
 C        -2.447135         0.150415         0.711060
 H         0.095810        -1.219630         0.435032
 H        -0.763374         2.695183         1.272527
 H        -1.546709         2.351774        -0.374182
 H        -0.292692         1.036734         2.940919
 H        -1.422970        -0.367973         3.086348
 H        -4.828407         0.471423         1.321676
 H        -5.214606         2.235166         0.715006
 H        -4.070769         0.079525        -0.878925
 H        -3.078235         1.600720        -0.980282
 H        -2.858755        -0.854391         0.899630
