19
Iteration:  1091
 O         0.163658        -0.283296         0.100729
 C        -0.924301         0.399166         0.750563
 C        -1.297509         1.966637         0.666112
 C        -2.358841         1.191742         1.706966
 C        -1.124603         0.550698         2.434692
 O        -3.508365         1.739371         2.145403
 C        -4.357424         1.610719         0.749802
 C        -3.596527         0.617991        -0.227230
 C        -2.497510         0.051202         0.748657
 H         0.906003         0.390186        -0.019661
 H        -0.560261         2.659624         0.932750
 H        -1.615816         2.321458        -0.358300
 H        -0.519131         1.204462         2.956119
 H        -1.498889        -0.453313         2.783701
 H        -5.246898         1.174735         1.202892
 H        -4.606019         2.644126         0.609406
 H        -4.173426        -0.246467        -0.370185
 H        -3.191659         1.026224        -1.219602
 H        -2.762445        -0.887302         1.228800
