19
Iteration:  2419
 O         0.190093        -0.353683         0.247265
 C        -0.973865         0.415743         0.715533
 C        -1.246811         1.944967         0.764848
 C        -2.268722         1.378231         1.694866
 C        -1.195479         0.480351         2.248681
 O        -3.462683         1.914380         1.966654
 C        -4.414411         1.365411         1.017877
 C        -3.644200         0.653150        -0.157878
 C        -2.450313         0.083554         0.574055
 H         0.559256         0.163153        -0.568151
 H        -0.500965         2.618389         1.264424
 H        -1.659075         2.444489        -0.211880
 H        -0.499679         0.797939         2.997250
 H        -1.532209        -0.697697         2.662139
 H        -5.041261         0.741493         1.644893
 H        -5.048587         2.188899         0.648143
 H        -4.423377         0.023973        -0.798148
 H        -3.256757         1.514426        -0.834308
 H        -2.568682        -0.826628         1.114224
