19
Iteration:  3516
 O         0.023271        -0.261431         0.148417
 C        -0.990376         0.421860         0.820405
 C        -1.203933         1.936778         0.613674
 C        -2.272059         1.279678         1.675022
 C        -1.165405         0.552508         2.372901
 O        -3.476471         1.754631         2.048164
 C        -4.369944         1.536916         0.853267
 C        -3.546166         0.581185        -0.125178
 C        -2.427557         0.059298         0.668601
 H         0.795739         0.348391         0.139014
 H        -0.508974         2.691030         0.991865
 H        -1.655807         2.228600        -0.293368
 H        -0.407960         1.154156         2.806533
 H        -1.480957        -0.240014         3.029937
 H        -5.311336         1.066460         1.160084
 H        -4.706261         2.372966         0.312165
 H        -4.320483        -0.218329        -0.157301
 H        -3.391954         1.042489        -1.082029
 H        -2.718489        -0.963790         1.040100
