19
Iteration:  3362charge 0 multiplicity 1
 O         0.155664        -0.251454         0.064946
 C        -0.876819         0.339302         0.822579
 C        -1.160262         1.996050         0.685310
 C        -2.227916         1.307229         1.650319
 C        -1.145806         0.449215         2.412923
 O        -3.538980         1.958025         1.972011
 C        -4.519390         1.292086         0.972297
 C        -3.632716         0.700962        -0.212521
 C        -2.474576         0.149460         0.697006
 H         0.504897        -0.934596         0.726604
 H        -0.435056         2.687683         1.053061
 H        -1.463753         2.267523        -0.343204
 H        -0.430020         0.931691         3.046445
 H        -1.546326        -0.479121         2.861375
 H        -5.164050         0.524934         1.429649
 H        -5.053961         2.163689         0.616986
 H        -4.142519        -0.113546        -0.858050
 H        -3.406684         1.457248        -0.930913
 H        -2.938968        -0.814689         1.100695
