19
Iteration:  3583
 O         0.068589        -0.261772         0.145095
 C        -0.935803         0.394655         0.800573
 C        -1.133520         1.972284         0.652931
 C        -2.277217         1.318505         1.660201
 C        -1.188801         0.538484         2.387132
 O        -3.411100         1.945859         1.961350
 C        -4.410913         1.178583         0.985196
 C        -3.666648         0.689634        -0.248770
 C        -2.516871         0.162745         0.642643
 H         0.677559        -0.908758         0.635975
 H        -0.336590         2.566743         1.108825
 H        -1.471221         2.290494        -0.303936
 H        -0.382621         1.123940         2.869470
 H        -1.462168        -0.243593         3.080454
 H        -4.920586         0.421254         1.555162
 H        -5.236085         1.853758         0.812350
 H        -4.107031        -0.215871        -0.674543
 H        -3.292899         1.607953        -0.869033
 H        -3.092783        -0.693486         1.148581
