19
Iteration:  4548charge 0 multiplicity 1
 O         0.104294        -0.221867         0.171463
 C        -0.969693         0.380542         0.662631
 C        -1.161892         1.874029         0.659342
 C        -2.197604         1.306443         1.704210
 C        -1.088356         0.598561         2.398632
 O        -3.525736         1.965993         1.905110
 C        -4.494866         1.334769         0.955466
 C        -3.626745         0.573311        -0.145529
 C        -2.460700         0.116009         0.786499
 H         0.106325        -0.921610        -0.468831
 H        -0.315866         2.510524         0.999764
 H        -1.681450         2.040955        -0.265144
 H        -0.522532         1.367484         2.890881
 H        -1.183244        -0.426133         2.761842
 H        -5.019318         0.607038         1.582174
 H        -5.121708         2.157572         0.707441
 H        -4.178285        -0.293093        -0.556742
 H        -3.311165         1.436042        -0.946187
 H        -2.692400        -0.780643         1.447995
