19
Iteration:  2787
 O         0.097053        -0.225106         0.141190
 C        -0.963102         0.399079         0.819259
 C        -1.065947         1.868148         0.683043
 C        -2.283891         1.243283         1.685606
 C        -1.121469         0.526112         2.381288
 O        -3.525671         1.851501         1.978556
 C        -4.412263         1.399107         0.917070
 C        -3.667241         0.693942        -0.161966
 C        -2.516056         0.084270         0.683305
 H         0.498994         0.336833        -0.565396
 H        -0.397782         2.591728         1.073168
 H        -1.465229         2.265881        -0.246440
 H        -0.353270         1.032285         3.006070
 H        -1.424341        -0.404168         3.046852
 H        -5.210890         0.662336         1.334648
 H        -4.895417         2.284389         0.484695
 H        -4.215823        -0.101402        -0.783144
 H        -3.262152         1.445393        -0.842257
 H        -2.720994        -0.907124         1.122308
