19
Iteration:   759charge 0 multiplicity 1
 O         0.040378        -0.367139         0.106092
 C        -0.910683         0.467180         0.702655
 C        -1.225912         2.040248         0.818837
 C        -2.289141         1.276132         1.676372
 C        -1.228518         0.515170         2.355886
 O        -3.547776         1.755591         1.981005
 C        -4.381076         1.470822         0.892405
 C        -3.553812         0.608557        -0.105775
 C        -2.355048         0.129909         0.654927
 H         0.684323         0.229087        -0.278833
 H        -0.477298         2.694274         1.329799
 H        -1.558013         2.563768        -0.037812
 H        -0.433743         1.040787         3.025042
 H        -1.354396        -0.493524         2.713896
 H        -5.194993         0.810155         1.250773
 H        -4.764431         2.454032         0.531740
 H        -4.201954        -0.225375        -0.555480
 H        -3.300688         1.184941        -0.967766
 H        -2.617347        -0.779303         1.283935
