19
Iteration:  4988
 O         0.056253        -0.243951         0.206665
 C        -0.958577         0.404000         0.753705
 C        -1.267894         1.873545         0.576307
 C        -2.231303         1.318995         1.653959
 C        -1.098544         0.624882         2.353241
 O        -3.449958         1.840791         2.014568
 C        -4.458112         1.416618         0.992116
 C        -3.554948         0.646014        -0.159726
 C        -2.452061         0.030936         0.737428
 H        -0.040505        -0.671367        -0.706636
 H        -0.585191         2.619360         0.941013
 H        -1.553855         2.293203        -0.381247
 H        -0.289374         1.168503         2.780324
 H        -1.385436        -0.241859         2.928798
 H        -5.351569         0.741445         1.375086
 H        -4.917866         2.476555         0.695254
 H        -4.155359        -0.197264        -0.603638
 H        -3.163742         1.274034        -0.921961
 H        -2.659839        -0.991423         1.111050
