19
Iteration:  1313charge 0 multiplicity 1
 O         0.074560        -0.228978         0.125207
 C        -0.914717         0.485940         0.725549
 C        -1.300213         1.931430         0.679670
 C        -2.281494         1.187353         1.667765
 C        -1.153812         0.428370         2.400661
 O        -3.446733         1.829644         1.938689
 C        -4.354933         1.440025         0.923991
 C        -3.620579         0.702883        -0.167853
 C        -2.474525         0.113960         0.722999
 H         0.983760        -0.112500         0.594855
 H        -0.650624         2.656296         1.211734
 H        -1.766712         2.212700        -0.243229
 H        -0.573406         1.156728         3.178314
 H        -1.328713        -0.490644         2.968927
 H        -5.105791         0.607319         1.435125
 H        -4.979506         2.326151         0.548081
 H        -4.210121        -0.166863        -0.747918
 H        -3.247573         1.370452        -0.957763
 H        -2.626427        -0.850955         1.182169
