19
Iteration:  3833charge 0 multiplicity 1
 O         0.041922        -0.289874         0.114058
 C        -0.952907         0.422496         0.777334
 C        -1.174190         2.007970         0.634435
 C        -2.275474         1.406507         1.669174
 C        -1.053724         0.641280         2.390210
 O        -3.564257         1.748265         1.989380
 C        -4.372574         1.386669         0.831085
 C        -3.539410         0.525770        -0.116997
 C        -2.482828         0.077132         0.859986
 H        -0.299587        -0.733980        -0.713684
 H        -0.358078         2.704287         0.961492
 H        -1.646275         2.385476        -0.353426
 H        -0.155131         1.316906         2.789009
 H        -1.462016        -0.301251         2.941657
 H        -5.211830         0.837222         1.301281
 H        -4.962983         2.326349         0.506972
 H        -4.087668        -0.202692        -0.690224
 H        -3.072720         1.181306        -0.856867
 H        -2.834326        -0.665986         1.554866
