19
Iteration:  4444
 O         0.092853        -0.236748         0.065121
 C        -0.998823         0.508555         0.760196
 C        -1.302009         1.909551         0.634757
 C        -2.282690         1.214036         1.720016
 C        -1.038240         0.614611         2.374365
 O        -3.527460         1.817422         2.089414
 C        -4.339913         1.596242         0.790689
 C        -3.605355         0.462713        -0.144724
 C        -2.436712         0.009928         0.728886
 H         0.400749        -0.705300         0.803210
 H        -0.526697         2.547761         0.989370
 H        -1.804052         2.331165        -0.204702
 H        -0.340161         1.417451         2.703578
 H        -1.114658        -0.250412         3.021209
 H        -5.313777         1.213061         1.168157
 H        -4.589196         2.559552         0.346209
 H        -4.398092        -0.383273        -0.202150
 H        -3.367510         0.866985        -1.194309
 H        -2.610970        -0.876924         1.356699
