19
Iteration:  4959charge 0 multiplicity 1
 O         0.205534        -0.313181         0.135160
 C        -0.846841         0.351281         0.798901
 C        -1.232074         1.821637         0.585016
 C        -2.291915         1.282886         1.658545
 C        -1.075155         0.650402         2.300420
 O        -3.508744         1.829786         2.016119
 C        -4.500027         1.495755         0.930770
 C        -3.666373         0.676936        -0.123988
 C        -2.542832         0.091428         0.820290
 H         0.508691         0.223705        -0.644740
 H        -0.579670         2.560481         1.133582
 H        -1.567508         2.102772        -0.403980
 H        -0.403206         1.359326         2.845412
 H        -1.341054        -0.268097         2.896713
 H        -5.209942         0.752708         1.296803
 H        -4.947850         2.436423         0.677955
 H        -4.313032        -0.235097        -0.432159
 H        -3.268385         1.095747        -1.038973
 H        -2.823130        -0.942565         1.247985
