19
Iteration:  4869
 O         0.067668        -0.203134         0.088908
 C        -0.979435         0.396224         0.781989
 C        -1.312583         1.888831         0.546137
 C        -2.213453         1.321224         1.674588
 C        -1.034068         0.654922         2.372296
 O        -3.553270         1.822726         2.082619
 C        -4.329582         1.509658         0.905213
 C        -3.514652         0.534819        -0.144929
 C        -2.552974         0.019086         0.785853
 H         0.031928        -1.138482        -0.051155
 H        -0.595041         2.637845         0.841653
 H        -1.713146         2.188194        -0.445280
 H        -0.444787         1.463459         2.798964
 H        -1.221950        -0.247140         2.973792
 H        -5.221681         0.923042         1.258129
 H        -4.630636         2.510783         0.503930
 H        -4.121927        -0.390011        -0.590144
 H        -2.951182         1.010459        -0.868821
 H        -2.784787        -0.964617         1.417760
