19
Iteration:  2851charge 0 multiplicity 1
 O         0.008538        -0.192892         0.053464
 C        -0.903081         0.475694         0.828394
 C        -1.262075         1.930948         0.675121
 C        -2.291975         1.184451         1.699392
 C        -1.016825         0.569002         2.306363
 O        -3.618276         1.695785         2.072576
 C        -4.285926         1.687080         0.810799
 C        -3.588967         0.521085        -0.104035
 C        -2.459715         0.002409         0.696169
 H         0.631251        -0.556085         0.789229
 H        -0.556634         2.668479         1.194098
 H        -1.819114         2.342954        -0.217109
 H        -0.449221         1.347429         2.805770
 H        -1.226139        -0.358202         2.838931
 H        -5.309634         1.368185         1.021224
 H        -4.062879         2.722493         0.498045
 H        -4.332933        -0.265227        -0.410124
 H        -3.244212         0.976877        -1.015449
 H        -2.840658        -0.947970         1.162802
