19
Iteration:  1819
 O         0.015502        -0.213702         0.027088
 C        -0.944132         0.415531         0.857435
 C        -1.229967         1.887204         0.677078
 C        -2.307438         1.253597         1.646410
 C        -1.077561         0.530470         2.426217
 O        -3.534416         1.769910         2.012151
 C        -4.402672         1.471575         0.858030
 C        -3.558844         0.655775        -0.164465
 C        -2.473305         0.116484         0.722533
 H         0.903872        -0.106883         0.497145
 H        -0.257060         2.499394         1.073231
 H        -1.331224         2.332820        -0.309946
 H        -0.386763         1.203380         2.889084
 H        -1.236619        -0.535029         2.919225
 H        -5.128027         0.796709         1.385566
 H        -4.785205         2.471890         0.692473
 H        -4.281479        -0.117438        -0.583364
 H        -3.189194         1.219384        -1.101287
 H        -2.751480        -0.834541         1.260006
