19
Iteration:  4602
 O         0.096212        -0.367059         0.279222
 C        -0.960642         0.478945         0.701183
 C        -1.169076         2.000799         0.580527
 C        -2.183488         1.354822         1.680868
 C        -1.107135         0.599818         2.313563
 O        -3.547531         1.844369         1.977903
 C        -4.462566         1.305321         0.984909
 C        -3.583012         0.605293        -0.113105
 C        -2.448667         0.177095         0.688151
 H        -0.165213        -0.829382        -0.472941
 H        -0.272878         2.491340         0.982674
 H        -1.546361         2.447767        -0.303508
 H        -0.265789         1.075670         2.710547
 H        -1.406244        -0.259813         2.891989
 H        -5.113370         0.698392         1.619228
 H        -5.032926         2.115890         0.543321
 H        -4.035058        -0.259101        -0.527812
 H        -3.894676         1.229072        -1.155469
 H        -2.728950        -0.809191         1.205536
