19
Iteration:   137
 O         0.068564        -0.242603         0.096356
 C        -0.947615         0.427304         0.795742
 C        -1.283730         1.935572         0.860732
 C        -2.320907         1.231773         1.727595
 C        -1.154121         0.381242         2.472324
 O        -3.554827         1.733641         2.082744
 C        -4.307924         1.527713         0.760052
 C        -3.512983         0.780569        -0.253647
 C        -2.459268         0.038836         0.562226
 H         0.805399         0.422673        -0.188604
 H        -0.576818         2.499593         1.465632
 H        -1.575022         2.532881        -0.111216
 H        -0.386127         0.987057         2.949363
 H        -1.487063        -0.616317         2.836238
 H        -5.208618         1.027265         1.085458
 H        -4.610502         2.535183         0.464962
 H        -4.311709         0.208175        -0.849391
 H        -2.960169         1.414003        -1.030895
 H        -2.738639        -0.955466         1.050832
