19
Iteration:  2771charge 0 multiplicity 1
 O         0.200602        -0.299893         0.167100
 C        -0.914820         0.360059         0.796035
 C        -1.284550         1.913460         0.707978
 C        -2.281719         1.329188         1.642237
 C        -1.196274         0.445191         2.358648
 O        -3.483876         1.900005         1.969235
 C        -4.468830         1.375293         1.003215
 C        -3.553399         0.704565        -0.197165
 C        -2.460621         0.142137         0.664051
 H         0.345225         0.104446        -0.769940
 H        -0.336055         2.399431         1.256786
 H        -1.547453         2.345735        -0.294372
 H        -0.446729         1.087673         2.876335
 H        -1.447457        -0.456485         2.796557
 H        -5.118794         0.626227         1.424938
 H        -5.297038         2.156878         0.772501
 H        -4.148690        -0.046931        -0.656887
 H        -3.343039         1.434510        -0.997741
 H        -2.861973        -0.694856         1.347547
