19
Iteration:   143
 O         0.064405        -0.276750         0.076119
 C        -0.943463         0.425141         0.748874
 C        -1.284596         1.968197         0.912694
 C        -2.333910         1.260125         1.785204
 C        -1.145373         0.431976         2.480129
 O        -3.563422         1.667191         2.048183
 C        -4.321790         1.585763         0.756727
 C        -3.537485         0.736622        -0.298054
 C        -2.428058         0.069113         0.604985
 H         0.770030         0.243206        -0.281702
 H        -0.437339         2.464776         1.474896
 H        -1.630515         2.508412         0.116634
 H        -0.265968         0.874417         3.055984
 H        -1.354856        -0.563082         2.816872
 H        -5.253558         1.026212         1.009692
 H        -4.491629         2.635769         0.392735
 H        -4.198434         0.075386        -0.774469
 H        -3.113363         1.408239        -1.010355
 H        -2.774343        -0.855686         0.961039
