19
Iteration:  2310charge 0 multiplicity 1
 O         0.183306        -0.285849         0.171087
 C        -0.893198         0.432154         0.748033
 C        -1.236606         1.887666         0.698003
 C        -2.311782         1.211959         1.679442
 C        -1.105596         0.568156         2.293457
 O        -3.602479         1.719386         2.089246
 C        -4.389216         1.573762         0.926833
 C        -3.585225         0.678180        -0.170924
 C        -2.452538         0.079354         0.710180
 H        -0.013820        -0.560794        -0.734772
 H        -0.498529         2.482605         1.189418
 H        -1.642964         2.516784        -0.071695
 H        -0.472900         1.230303         2.714043
 H        -1.474594        -0.306284         2.770700
 H        -5.378854         1.172573         1.049311
 H        -4.486440         2.523646         0.396273
 H        -4.353898         0.068528        -0.791714
 H        -3.135119         1.254244        -1.054160
 H        -2.804705        -0.703407         1.392186
