19
Iteration:   848charge 0 multiplicity 1
 O         0.024743        -0.094758         0.036230
 C        -0.970991         0.423514         0.759297
 C        -1.307528         1.934122         0.737336
 C        -2.288276         1.164914         1.717432
 C        -1.059806         0.451612         2.437972
 O        -3.614423         1.691410         1.989533
 C        -4.219355         1.739643         0.750465
 C        -3.611833         0.495765        -0.052998
 C        -2.411649         0.052337         0.732873
 H         0.878137         0.211284         0.233581
 H        -0.543579         2.606231         1.180228
 H        -1.732124         2.261133        -0.139841
 H        -0.240620         0.855726         3.079027
 H        -1.373196        -0.528729         2.890324
 H        -5.298840         1.598034         0.836028
 H        -3.995112         2.637694         0.132632
 H        -4.348574        -0.338292        -0.092345
 H        -3.463782         0.706990        -1.087074
 H        -2.685524        -0.903373         1.198792
