19
Iteration:  4302
 O         0.079277        -0.196057         0.099165
 C        -0.933161         0.435249         0.709732
 C        -1.208166         1.942671         0.675006
 C        -2.296054         1.292998         1.738254
 C        -1.119813         0.640022         2.406110
 O        -3.517538         1.852551         1.995180
 C        -4.355747         1.495988         0.859855
 C        -3.612084         0.456503        -0.076140
 C        -2.417056         0.011387         0.695773
 H        -0.070434        -1.088244        -0.177841
 H        -0.528879         2.590266         1.127866
 H        -1.694797         2.354015        -0.144184
 H        -0.496911         1.363765         2.890205
 H        -1.369654        -0.213579         2.924909
 H        -5.316221         1.015619         1.195226
 H        -4.695022         2.365386         0.327748
 H        -4.270019        -0.466631        -0.383043
 H        -3.381941         1.042315        -1.028727
 H        -2.517232        -0.959961         1.289823
