19
Iteration:  3590charge 0 multiplicity 1
 O         0.105534        -0.242356         0.134253
 C        -0.910261         0.389896         0.816028
 C        -1.164564         1.928597         0.712243
 C        -2.250479         1.291161         1.600246
 C        -1.263188         0.552185         2.383862
 O        -3.394992         1.967987         1.966919
 C        -4.446592         1.243106         1.011242
 C        -3.716686         0.687655        -0.220808
 C        -2.454803         0.134306         0.618708
 H         0.521764        -0.945570         0.640831
 H        -0.350580         2.628172         1.018426
 H        -1.401653         2.252232        -0.317598
 H        -0.450934         1.133482         2.725209
 H        -1.574517        -0.223938         3.089856
 H        -4.767362         0.309813         1.531992
 H        -5.256910         1.931059         0.851750
 H        -4.094023        -0.225563        -0.810310
 H        -3.415893         1.384918        -0.913704
 H        -2.761301        -0.768169         1.134692
