19
Iteration:  2183
 O         0.203142        -0.190203         0.162332
 C        -0.974903         0.360614         0.737071
 C        -1.343305         1.899586         0.723874
 C        -2.296404         1.202679         1.710899
 C        -1.094150         0.487927         2.261132
 O        -3.583961         1.723720         2.067960
 C        -4.285966         1.675218         0.789688
 C        -3.587060         0.643443        -0.117591
 C        -2.506198        -0.001500         0.784757
 H         0.400958        -0.001361        -0.747015
 H        -0.643550         2.600794         1.274402
 H        -1.941948         2.409644        -0.110394
 H        -0.160688         1.007543         2.700296
 H        -1.270227        -0.274255         2.952590
 H        -5.332307         1.384998         1.020240
 H        -4.338256         2.652616         0.272375
 H        -4.201999        -0.125942        -0.462647
 H        -3.173781         1.375089        -0.787399
 H        -2.852502        -0.992468         1.166723
