19
Iteration:  4999charge 0 multiplicity 1
 O         0.092833        -0.303627         0.205474
 C        -0.957378         0.465205         0.764375
 C        -1.264619         1.970386         0.600998
 C        -2.284591         1.301681         1.648914
 C        -1.055502         0.551842         2.282592
 O        -3.474352         1.840811         2.017206
 C        -4.388893         1.442146         0.932462
 C        -3.569651         0.587926        -0.111030
 C        -2.441028         0.124623         0.727868
 H        -0.442673        -0.776651        -0.442244
 H        -0.557360         2.609122         1.086797
 H        -1.739733         2.203944        -0.336476
 H        -0.460423         1.101448         2.939058
 H        -1.407961        -0.380101         2.698515
 H        -4.968061         0.656019         1.577260
 H        -5.126798         2.281166         0.514594
 H        -4.281765        -0.206974        -0.497489
 H        -3.343062         1.175893        -0.950561
 H        -2.680652        -0.780766         1.330712
