19
Iteration:  2353charge 0 multiplicity 1
 O         0.112759        -0.365199         0.181046
 C        -0.914713         0.465996         0.740438
 C        -1.215590         1.986817         0.761011
 C        -2.299618         1.304141         1.658304
 C        -1.203535         0.496904         2.325985
 O        -3.511079         1.833906         2.015212
 C        -4.418464         1.433736         0.969167
 C        -3.533127         0.659027        -0.191907
 C        -2.445174         0.135015         0.701511
 H         0.114772        -0.236719        -0.748929
 H        -0.458294         2.668007         1.144537
 H        -1.563596         2.432219        -0.206495
 H        -0.453170         0.992004         2.862825
 H        -1.380373        -0.630513         2.513071
 H        -5.090627         0.711211         1.429129
 H        -5.012638         2.291790         0.705770
 H        -4.068786        -0.223441        -0.775662
 H        -3.304065         1.365792        -1.044922
 H        -2.708050        -0.851045         1.050222
