19
Iteration:   923charge 0 multiplicity 1
 O         0.189876        -0.251333         0.100136
 C        -0.918078         0.346742         0.748425
 C        -1.312288         1.899239         0.672987
 C        -2.341407         1.286336         1.694260
 C        -1.096680         0.473962         2.309143
 O        -3.577027         1.828692         2.114114
 C        -4.402487         1.491504         0.913580
 C        -3.534198         0.686371        -0.206959
 C        -2.502793         0.049340         0.708794
 H         1.034284         0.260999         0.317495
 H        -0.668075         2.634399         1.317961
 H        -1.607176         2.322493        -0.250930
 H        -0.443587         1.188603         2.853492
 H        -1.173826        -0.460344         2.873669
 H        -5.277520         0.879436         1.114043
 H        -4.694361         2.485434         0.536494
 H        -4.220681        -0.058893        -0.851831
 H        -3.142964         1.390078        -0.943518
 H        -2.982215        -0.890672         1.158004
