19
Iteration:  3786
 O         0.281401        -0.320086         0.263683
 C        -0.878967         0.388246         0.719189
 C        -1.433464         1.967649         0.580601
 C        -2.259488         1.260506         1.655063
 C        -1.058230         0.625394         2.317858
 O        -3.526463         1.746698         2.062766
 C        -4.358341         1.624864         0.848561
 C        -3.725262         0.537447        -0.096618
 C        -2.512046         0.028459         0.753481
 H         0.472657         0.118333        -0.636220
 H        -0.685358         2.640320         1.050506
 H        -1.851840         2.383557        -0.329493
 H        -0.363872         1.424844         2.726542
 H        -1.210395        -0.409395         2.889578
 H        -5.460664         1.498384         1.073125
 H        -4.361834         2.633528         0.359712
 H        -4.377430        -0.396419        -0.245845
 H        -3.434678         0.751105        -1.086978
 H        -2.753625        -0.872035         1.282878
