19
Iteration:  3238charge 0 multiplicity 1
 O        -0.021430        -0.154120         0.035371
 C        -0.909945         0.419914         0.814548
 C        -1.270792         1.979782         0.758136
 C        -2.297900         1.300619         1.734121
 C        -1.061436         0.470957         2.390776
 O        -3.538142         1.760292         2.068174
 C        -4.336337         1.538009         0.747753
 C        -3.589815         0.519287        -0.190686
 C        -2.374888         0.086290         0.760997
 H         0.083833        -1.104691         0.329698
 H        -0.512620         2.840125         0.931917
 H        -1.779113         2.210180        -0.200265
 H        -0.362689         1.067242         3.006137
 H        -1.256614        -0.444850         2.860642
 H        -5.358255         1.536114         0.988880
 H        -4.328590         2.545563         0.222881
 H        -4.315894        -0.302324        -0.361210
 H        -3.145748         0.892228        -1.191731
 H        -2.642943        -0.914987         1.204924
