19
Iteration:  1553
 O         0.065141        -0.239740         0.037749
 C        -0.964667         0.446778         0.741247
 C        -1.283863         1.973604         0.875374
 C        -2.294499         1.261645         1.787100
 C        -1.088581         0.435376         2.341258
 O        -3.571378         1.746897         1.996358
 C        -4.278175         1.634614         0.743281
 C        -3.637588         0.476047        -0.114605
 C        -2.397337         0.127086         0.727396
 H         0.864360         0.391272        -0.035288
 H        -0.655029         2.757750         1.288335
 H        -1.761942         2.355849        -0.138087
 H        -0.189963         0.896278         2.833192
 H        -1.246734        -0.487550         2.833333
 H        -5.280057         1.498720         0.985574
 H        -4.256059         2.581311         0.239557
 H        -4.402018        -0.359800        -0.124278
 H        -3.521406         0.611169        -1.233423
 H        -2.781926        -0.828787         1.227481
