19
Iteration:  3410charge 0 multiplicity 1
 O         0.067215        -0.195741         0.097670
 C        -0.944492         0.447844         0.828573
 C        -1.182550         1.975172         0.657718
 C        -2.369798         1.163519         1.770121
 C        -1.020785         0.569226         2.427459
 O        -3.580138         1.716618         2.028772
 C        -4.372431         1.664906         0.820700
 C        -3.611211         0.489363        -0.187425
 C        -2.447711         0.091372         0.699192
 H        -0.068174        -1.145472        -0.063890
 H        -0.399442         2.637803         1.068039
 H        -1.618853         2.369771        -0.243751
 H        -0.319781         1.394738         2.829378
 H        -0.939231        -0.388748         3.053138
 H        -5.349515         1.243939         1.109522
 H        -4.218240         2.625514         0.308964
 H        -4.314004        -0.158139        -0.591329
 H        -3.221724         0.961031        -1.148407
 H        -2.624822        -0.893183         1.098482
