19
Iteration:   868charge 0 multiplicity 1
 O         0.096323        -0.240136        -0.098583
 C        -0.875763         0.459269         0.749817
 C        -1.199749         2.006674         0.865081
 C        -2.335241         1.275342         1.785646
 C        -1.161243         0.537702         2.357220
 O        -3.596611         1.652716         2.077659
 C        -4.288355         1.649429         0.657812
 C        -3.679987         0.457733        -0.124300
 C        -2.470696         0.072029         0.831749
 H         0.998915         0.070278         0.046822
 H        -0.410906         2.574741         1.510796
 H        -1.448073         2.489103        -0.050655
 H        -0.451220         1.208024         2.966788
 H        -1.350375        -0.364641         2.924899
 H        -5.367919         1.621142         0.833927
 H        -3.968330         2.673610         0.415013
 H        -4.496760        -0.401199        -0.361089
 H        -3.309025         0.758839        -1.107113
 H        -2.731216        -0.940149         1.308656
