19
Iteration:   487
 O         0.161204        -0.194169         0.182907
 C        -0.899733         0.450572         0.748053
 C        -1.252291         1.944208         0.809070
 C        -2.278028         1.200213         1.717209
 C        -1.102720         0.427111         2.313523
 O        -3.550250         1.755295         1.979884
 C        -4.434036         1.658337         0.843435
 C        -3.643520         0.488064        -0.131878
 C        -2.445136         0.091572         0.669014
 H         0.489071         0.180914        -0.595928
 H        -0.457422         2.638096         1.183189
 H        -1.781698         2.464824        -0.061336
 H        -0.379111         1.044979         2.920153
 H        -1.396123        -0.521579         2.761994
 H        -5.414487         1.278456         1.216797
 H        -4.488422         2.668161         0.360755
 H        -4.456102        -0.226871        -0.517173
 H        -3.266325         1.046659        -0.990561
 H        -2.620615        -0.881223         1.136224
