19
Iteration:  1024charge 0 multiplicity 1
 O         0.027213        -0.284055        -0.029818
 C        -0.897834         0.412273         0.827728
 C        -1.215852         1.929007         0.733855
 C        -2.293436         1.319075         1.654575
 C        -1.192944         0.510844         2.439617
 O        -3.543160         1.898792         1.957676
 C        -4.447523         1.316335         0.967519
 C        -3.511047         0.708267        -0.145599
 C        -2.367846         0.060681         0.701683
 H         0.813858        -0.121377         0.527365
 H        -0.469671         2.538144         1.159448
 H        -1.324582         2.242766        -0.347442
 H        -0.497440         1.095653         2.931385
 H        -1.630377        -0.389267         2.977051
 H        -5.158857         0.625948         1.375786
 H        -4.991483         2.058737         0.392714
 H        -4.049615         0.041865        -0.760428
 H        -3.190307         1.652359        -0.708585
 H        -2.795381        -0.860570         1.082251
