19
Iteration:  3925
 O         0.235822        -0.313053         0.233213
 C        -0.836571         0.364534         0.827396
 C        -1.194273         1.940305         0.535157
 C        -2.244783         1.347762         1.557996
 C        -1.118371         0.614802         2.352133
 O        -3.486362         1.813954         1.951247
 C        -4.511733         1.282594         1.027444
 C        -3.791007         0.713350        -0.110829
 C        -2.508878         0.171534         0.625084
 H         0.765238        -0.658389         0.933063
 H        -0.477648         2.712739         0.880767
 H        -1.456327         2.236083        -0.444371
 H        -0.364087         1.220964         2.802647
 H        -1.467834        -0.319180         2.775586
 H        -5.248995         0.588164         1.602053
 H        -5.180226         2.160936         0.714441
 H        -4.206768        -0.161665        -0.680612
 H        -3.660982         1.514061        -0.940278
 H        -2.882938        -0.728292         1.262441
