19
Iteration:   803charge 0 multiplicity 1
 O         0.174942        -0.204370         0.129781
 C        -0.964615         0.433479         0.749621
 C        -1.332399         1.858588         0.669207
 C        -2.305941         1.204978         1.706224
 C        -1.101823         0.544806         2.334272
 O        -3.590711         1.603408         2.001933
 C        -4.295418         1.720325         0.863239
 C        -3.591445         0.662699        -0.114133
 C        -2.508633         0.008436         0.764149
 H         0.839777         0.460267        -0.029367
 H        -0.585790         2.531438         1.189712
 H        -1.703217         2.268336        -0.211780
 H        -0.334074         1.269660         2.802913
 H        -1.233937        -0.272361         3.028058
 H        -5.326715         1.458859         1.102732
 H        -4.210921         2.670088         0.296266
 H        -4.341946        -0.160757        -0.385262
 H        -3.286446         1.029495        -1.061039
 H        -2.629807        -1.053988         1.125666
