19
Iteration:  4459
 O         0.137040        -0.265474         0.051632
 C        -0.907085         0.365800         0.712964
 C        -1.396465         1.962257         0.565220
 C        -2.312953         1.290634         1.716131
 C        -1.058236         0.653643         2.372910
 O        -3.549409         1.764370         2.038209
 C        -4.337884         1.539969         0.841007
 C        -3.576623         0.587958        -0.071788
 C        -2.484648         0.028866         0.872993
 H         0.626279        -0.894544         0.621637
 H        -0.737071         2.751383         0.949581
 H        -1.821504         2.138421        -0.420439
 H        -0.311471         1.217388         2.880130
 H        -1.313504        -0.283827         2.854530
 H        -5.283117         1.154649         1.147342
 H        -4.458103         2.500026         0.306871
 H        -4.146992        -0.101645        -0.631320
 H        -3.034904         1.167388        -0.917969
 H        -2.701034        -0.983421         1.292999
