19
Iteration:  2376
 O         0.161178        -0.244680         0.158788
 C        -0.893120         0.335048         0.756662
 C        -1.104815         1.866410         0.758793
 C        -2.251171         1.305298         1.607903
 C        -1.158888         0.497875         2.403934
 O        -3.546506         1.910135         1.972096
 C        -4.463963         1.312418         0.962709
 C        -3.666414         0.749994        -0.148424
 C        -2.498145         0.091360         0.671827
 H         0.142387         0.086612        -0.781791
 H        -0.277953         2.458288         1.168748
 H        -1.335857         2.402663        -0.174152
 H        -0.295900         0.985033         2.753329
 H        -1.641761        -0.429778         2.993827
 H        -5.152939         0.673442         1.479367
 H        -5.050859         2.170632         0.590409
 H        -4.221513         0.073541        -0.948146
 H        -3.336575         1.625460        -0.877880
 H        -2.885075        -0.797966         1.180890
