19
Iteration:   156charge 0 multiplicity 1
 O         0.019368        -0.345802         0.042870
 C        -0.915777         0.470034         0.757281
 C        -1.211270         2.016712         0.961455
 C        -2.267967         1.158060         1.779342
 C        -1.130193         0.426198         2.398324
 O        -3.672640         1.585695         2.023917
 C        -4.338191         1.645982         0.753024
 C        -3.500593         0.682776        -0.277778
 C        -2.418546         0.210796         0.695904
 H         0.695647         0.334823        -0.313255
 H        -0.474020         2.666788         1.509860
 H        -1.611726         2.540734         0.196971
 H        -0.477972         1.170940         2.991843
 H        -1.398640        -0.495862         2.803246
 H        -5.400270         1.460983         0.959133
 H        -4.345903         2.733124         0.375184
 H        -4.006306        -0.227489        -0.613236
 H        -3.232287         1.218197        -1.243702
 H        -2.577824        -0.787127         1.090761
