19
Iteration:  1651charge 0 multiplicity 1
 O         0.085145        -0.288126         0.043256
 C        -0.979804         0.456441         0.781885
 C        -1.216544         1.990689         0.800394
 C        -2.263186         1.308848         1.653869
 C        -1.169169         0.516205         2.374397
 O        -3.564147         1.696777         2.061023
 C        -4.354649         1.561190         0.853965
 C        -3.654045         0.587634        -0.194367
 C        -2.359315         0.104829         0.693749
 H         0.940892        -0.068516         0.522973
 H        -0.469768         2.665160         1.127518
 H        -1.639564         2.205958        -0.244467
 H        -0.375840         1.206765         2.719195
 H        -1.278318        -0.434143         2.741841
 H        -5.135226         1.034739         1.190311
 H        -4.552986         2.560427         0.480331
 H        -4.328780        -0.271543        -0.193462
 H        -3.543586         0.856230        -1.233075
 H        -2.660270        -0.809169         1.285728
