19
Iteration:  4680charge 0 multiplicity 1
 O         0.127553        -0.254887         0.146286
 C        -0.936058         0.392195         0.786103
 C        -1.277950         1.867109         0.630097
 C        -2.311766         1.298794         1.575093
 C        -1.039009         0.583295         2.304522
 O        -3.463045         1.871294         2.002485
 C        -4.348330         1.473355         0.901753
 C        -3.669196         0.495038        -0.077131
 C        -2.569285         0.048058         0.816663
 H         0.645512         0.543497        -0.018344
 H        -0.576783         2.584690         1.053246
 H        -1.630139         2.263648        -0.271079
 H        -0.421635         1.304143         2.779139
 H        -1.185820        -0.339226         2.817239
 H        -5.317424         1.091824         1.173447
 H        -4.602470         2.362084         0.343636
 H        -4.471080        -0.094378        -0.487059
 H        -3.033932         1.040731        -0.969325
 H        -2.882084        -0.723885         1.589031
