19
Iteration:  3882charge 0 multiplicity 1
 O         0.164850        -0.175943         0.157113
 C        -0.965861         0.409754         0.780600
 C        -1.281716         1.909200         0.691250
 C        -2.236908         1.315498         1.593465
 C        -1.134290         0.507587         2.343133
 O        -3.413651         1.973919         1.830953
 C        -4.399636         1.282987         1.020775
 C        -3.685490         0.584958        -0.118813
 C        -2.469192         0.084239         0.716092
 H         0.445437        -0.858338         0.797738
 H        -0.548865         2.545395         1.189658
 H        -1.617265         2.338537        -0.202232
 H        -0.369272         1.076511         2.783671
 H        -1.561956        -0.292254         2.909877
 H        -5.193466         0.746698         1.610603
 H        -5.128801         2.004953         0.677626
 H        -4.485974        -0.089051        -0.573389
 H        -3.461107         1.386160        -0.928592
 H        -2.674432        -0.949473         1.230558
