19
Iteration:  2928
 O         0.256129        -0.169796         0.067582
 C        -0.975030         0.386909         0.733631
 C        -1.286432         1.962337         0.770713
 C        -2.298889         1.254349         1.659528
 C        -1.089260         0.509682         2.377023
 O        -3.610781         1.799843         2.039092
 C        -4.239247         1.641277         0.817435
 C        -3.729914         0.495702        -0.144110
 C        -2.440067         0.041359         0.786395
 H        -0.094492        -1.036682        -0.219183
 H        -0.568829         2.701363         1.193012
 H        -1.743124         2.335802        -0.197940
 H        -0.381272         1.117816         2.767834
 H        -1.144996        -0.425771         2.894930
 H        -5.309406         1.355755         1.124135
 H        -4.446517         2.661636         0.378881
 H        -4.477903        -0.360153        -0.206091
 H        -3.468370         0.792216        -1.122645
 H        -2.642076        -0.919398         1.308345
