19
Iteration:    47charge 0 multiplicity 1
 O        -0.022813        -0.405809         0.057246
 C        -0.919054         0.459586         0.841098
 C        -1.095183         2.065880         0.878260
 C        -2.292400         1.341557         1.690797
 C        -1.294671         0.375494         2.388689
 O        -3.540265         1.816775         1.962373
 C        -4.385534         1.175035         0.939065
 C        -3.503865         0.864833        -0.271491
 C        -2.408959         0.277187         0.562433
 H         0.861583        -0.333204         0.550250
 H        -0.370249         2.662848         1.543466
 H        -1.311089         2.417627        -0.063375
 H        -0.422867         0.920478         2.893511
 H        -1.687862        -0.416634         2.910672
 H        -4.705493         0.218660         1.275843
 H        -5.272616         1.813119         0.710249
 H        -4.028227         0.145905        -0.930848
 H        -3.195333         1.800763        -0.873973
 H        -2.733111        -0.722407         0.950897
