19
Iteration:  2788
 O         0.092816        -0.224320         0.137933
 C        -0.965371         0.407665         0.825282
 C        -1.061841         1.863953         0.680448
 C        -2.288161         1.240353         1.694029
 C        -1.118130         0.532183         2.380461
 O        -3.522372         1.849027         1.979603
 C        -4.411260         1.407439         0.911617
 C        -3.670671         0.689485        -0.158640
 C        -2.515723         0.079279         0.676514
 H         0.545326         0.328906        -0.578393
 H        -0.442350         2.562152         1.090989
 H        -1.451888         2.261763        -0.235992
 H        -0.345650         1.008610         2.979334
 H        -1.437080        -0.397735         3.053496
 H        -5.234469         0.674406         1.290763
 H        -4.902371         2.268238         0.515107
 H        -4.185596        -0.116714        -0.796873
 H        -3.268784         1.446656        -0.835169
 H        -2.694976        -0.879817         1.157222
