19
Iteration:  3746charge 0 multiplicity 1
 O         0.262452        -0.108614         0.197932
 C        -0.925201         0.405652         0.760343
 C        -1.329527         1.805244         0.538140
 C        -2.319001         1.199851         1.684731
 C        -1.134997         0.570176         2.429871
 O        -3.468936         1.827979         2.077210
 C        -4.302673         1.670750         0.771189
 C        -3.754717         0.439164        -0.069170
 C        -2.478090        -0.005002         0.699506
 H         0.323955         0.096019        -0.723045
 H        -0.547291         2.485067         0.943831
 H        -1.917066         2.301564        -0.272332
 H        -0.477392         1.043053         3.154502
 H        -1.360838        -0.345434         2.949502
 H        -5.344216         1.697379         1.064623
 H        -4.173200         2.636899         0.190677
 H        -4.404533        -0.393921         0.154747
 H        -3.805858         0.729505        -1.125703
 H        -2.713597        -0.993224         1.126800
