19
Iteration:  1947charge 0 multiplicity 1
 O         0.007641        -0.271215         0.083960
 C        -0.955437         0.490018         0.754530
 C        -1.315692         2.019195         0.789723
 C        -2.264153         1.185380         1.715831
 C        -1.080290         0.520309         2.338796
 O        -3.537403         1.699563         2.091403
 C        -4.244952         1.634927         0.707024
 C        -3.656894         0.491642        -0.127800
 C        -2.455390         0.116024         0.699153
 H         0.796475         0.230952         0.230575
 H        -0.552423         2.467081         1.333254
 H        -1.517110         2.351635        -0.198498
 H        -0.270162         1.132333         2.749476
 H        -1.251457        -0.499480         2.906830
 H        -5.313210         1.490541         1.084874
 H        -4.188549         2.736625         0.279076
 H        -4.153293        -0.415547        -0.074944
 H        -3.450282         0.866555        -1.132153
 H        -2.622528        -0.913108         1.122431
