19
Iteration:  4175charge 0 multiplicity 1
 O         0.127686        -0.289160         0.053873
 C        -0.896559         0.416551         0.789591
 C        -1.262556         1.950560         0.619902
 C        -2.226408         1.325096         1.649449
 C        -1.144494         0.662203         2.445016
 O        -3.518542         1.908929         1.904974
 C        -4.437139         1.309484         0.977862
 C        -3.562462         0.596580        -0.124783
 C        -2.486700         0.072963         0.795484
 H        -0.183422        -1.203023        -0.305424
 H        -0.481100         2.732553         1.034133
 H        -1.665410         2.452835        -0.337088
 H        -0.379735         1.247721         3.056195
 H        -1.499395        -0.241288         3.137818
 H        -4.826319         0.492105         1.516583
 H        -5.205986         2.017301         0.544942
 H        -4.129299        -0.065940        -0.655164
 H        -3.089235         1.143711        -0.960805
 H        -2.749077        -0.688571         1.426478
