19
Iteration:  4825charge 0 multiplicity 1
 O         0.208765        -0.336596         0.192744
 C        -0.869361         0.458953         0.767873
 C        -1.212799         1.965327         0.635645
 C        -2.304964         1.315767         1.681610
 C        -0.988027         0.598938         2.306207
 O        -3.581133         1.783080         1.997971
 C        -4.445217         1.577128         0.868753
 C        -3.757994         0.420223        -0.119022
 C        -2.459268         0.126914         0.806415
 H         0.022516        -0.139876        -0.724755
 H        -0.492854         2.732300         0.807463
 H        -1.681573         2.289130        -0.335829
 H        -0.133841         1.130331         2.766136
 H        -1.221412        -0.369426         2.796887
 H        -5.431996         1.405737         1.338032
 H        -4.446595         2.514563         0.316998
 H        -4.565019        -0.449393        -0.025769
 H        -3.697394         0.896833        -1.064417
 H        -2.600321        -0.919056         1.345687
