19
Iteration:  2944
 O         0.151157        -0.223673         0.035495
 C        -0.840450         0.452984         0.802008
 C        -1.256756         1.930153         0.692206
 C        -2.291475         1.270261         1.722416
 C        -1.098966         0.551363         2.342910
 O        -3.587311         1.726660         2.067790
 C        -4.431568         1.596049         0.763355
 C        -3.603937         0.546439        -0.061416
 C        -2.464691         0.102573         0.743141
 H        -0.073346        -1.116941        -0.111169
 H        -0.542415         2.670431         1.120501
 H        -1.466371         2.422662        -0.234868
 H        -0.294811         1.124113         2.992454
 H        -1.490466        -0.386736         2.891044
 H        -5.417114         1.235348         1.143770
 H        -4.237137         2.490334         0.236675
 H        -4.257671        -0.284697        -0.290994
 H        -3.359375         1.028022        -1.072369
 H        -2.690537        -0.828284         1.252315
