19
Iteration:  4371
 O         0.139377        -0.080203         0.159282
 C        -0.918761         0.402704         0.844246
 C        -1.410899         1.902857         0.647862
 C        -2.256240         1.190607         1.620194
 C        -1.015039         0.637232         2.350472
 O        -3.490371         1.731245         2.039279
 C        -4.265729         1.691638         0.796279
 C        -3.677857         0.455306        -0.103197
 C        -2.532199        -0.055134         0.803517
 H        -0.101429        -0.878003        -0.347210
 H        -0.743998         2.709634         0.996785
 H        -1.980948         1.979555        -0.297390
 H        -0.358815         1.411795         2.700558
 H        -1.177210        -0.290003         2.909565
 H        -5.300230         1.632772         1.019656
 H        -4.203562         2.638948         0.109566
 H        -4.439688        -0.218513        -0.314114
 H        -3.296340         0.709695        -1.181096
 H        -2.519670        -1.015264         1.357877
