19
Iteration:  4399charge 0 multiplicity 1
 O         0.252667        -0.099741         0.072865
 C        -0.935495         0.423641         0.697243
 C        -1.226148         1.880044         0.591866
 C        -2.271167         1.213506         1.706832
 C        -1.161825         0.590478         2.417000
 O        -3.576492         1.793247         2.065481
 C        -4.316167         1.683038         0.775282
 C        -3.720557         0.409322        -0.035021
 C        -2.501409         0.047220         0.810191
 H         0.310188        -1.014378        -0.086834
 H        -0.474294         2.580986         0.942758
 H        -1.704365         2.204769        -0.322768
 H        -0.529694         1.227243         3.101067
 H        -1.355803        -0.447273         2.706583
 H        -5.416688         1.551966         1.039060
 H        -4.296276         2.512326         0.129614
 H        -4.477025        -0.463416         0.208532
 H        -3.536306         0.535093        -1.079451
 H        -2.405086        -0.943365         1.223539
