19
Iteration:   769
 O         0.069365        -0.347451         0.100242
 C        -0.887759         0.494502         0.731980
 C        -1.176677         2.029609         0.729896
 C        -2.300838         1.305969         1.722243
 C        -1.204884         0.489526         2.400478
 O        -3.551776         1.704139         2.100001
 C        -4.378150         1.473688         0.864352
 C        -3.589573         0.568125        -0.252308
 C        -2.434328         0.192760         0.718177
 H         0.761659         0.054404        -0.359346
 H        -0.470652         2.713498         1.259182
 H        -1.605349         2.438351        -0.201827
 H        -0.426886         1.109905         2.996801
 H        -1.483838        -0.487601         2.731845
 H        -5.333868         1.249692         1.341971
 H        -4.595116         2.427754         0.308551
 H        -4.197895        -0.393880        -0.546152
 H        -3.343567         1.232995        -1.083272
 H        -2.585790        -0.912129         1.010643
