19
Iteration:  4457
 O         0.139029        -0.266647         0.048051
 C        -0.929857         0.381320         0.711729
 C        -1.387944         1.969194         0.565681
 C        -2.306827         1.275864         1.729243
 C        -1.057504         0.649308         2.373622
 O        -3.547584         1.766779         2.044539
 C        -4.339480         1.553321         0.833718
 C        -3.581886         0.583209        -0.079361
 C        -2.478298         0.024564         0.867102
 H         0.636833        -0.904773         0.667110
 H        -0.757755         2.720455         0.942453
 H        -1.802484         2.136539        -0.396398
 H        -0.314299         1.225063         2.891045
 H        -1.299835        -0.252198         2.881423
 H        -5.246494         1.147386         1.186730
 H        -4.473604         2.454632         0.238447
 H        -4.213176        -0.160922        -0.623369
 H        -3.022435         1.180075        -0.974792
 H        -2.654541        -0.991263         1.318867
