19
Iteration:  1999charge 0 multiplicity 1
 O         0.009182        -0.226055         0.069795
 C        -0.950649         0.396863         0.817723
 C        -1.293165         1.876796         0.710516
 C        -2.253999         1.220022         1.662300
 C        -1.150612         0.556758         2.376142
 O        -3.533994         1.787449         2.033942
 C        -4.298682         1.503299         0.858889
 C        -3.575927         0.691601        -0.186321
 C        -2.432365         0.003577         0.732935
 H         0.799917         0.169722         0.355117
 H        -0.593155         2.597746         1.208123
 H        -1.863327         2.242619        -0.194952
 H        -0.360027         1.277143         2.788107
 H        -1.042974        -0.371080         2.864767
 H        -5.207310         0.970626         1.197557
 H        -4.422267         2.507618         0.551736
 H        -4.285866        -0.012453        -0.689898
 H        -3.129983         1.392893        -0.896899
 H        -2.703577        -0.953652         1.123047
