19
Iteration:  3617charge 0 multiplicity 1
 O         0.276181        -0.209476         0.203384
 C        -0.868151         0.412752         0.744741
 C        -1.140452         1.972088         0.630648
 C        -2.271378         1.238897         1.643493
 C        -1.209186         0.456053         2.345445
 O        -3.486341         1.985458         1.883403
 C        -4.533407         1.324711         1.023117
 C        -3.726890         0.637153        -0.054882
 C        -2.528871         0.112259         0.666120
 H         0.133241        -1.169550         0.136105
 H        -0.325817         2.537462         1.054768
 H        -1.349468         2.415021        -0.353236
 H        -0.398584         1.003270         2.905991
 H        -1.486935        -0.528533         2.719214
 H        -5.155401         0.657355         1.602925
 H        -4.978598         2.183302         0.506095
 H        -4.104825        -0.142630        -0.684773
 H        -3.472816         1.428847        -0.909798
 H        -2.815812        -0.837562         1.282735
