19
Iteration:  1227
 O         0.101017        -0.274763         0.130661
 C        -0.961257         0.495171         0.734134
 C        -1.253064         1.933638         0.609777
 C        -2.363895         1.164461         1.819889
 C        -1.061073         0.519626         2.359615
 O        -3.563519         1.699526         2.106939
 C        -4.296681         1.579810         0.767822
 C        -3.582262         0.635460        -0.195221
 C        -2.523247         0.081107         0.772113
 H         0.834516         0.379097         0.197321
 H        -0.531980         2.615991         1.071608
 H        -1.706557         2.375485        -0.248781
 H        -0.414540         1.358131         2.852647
 H        -0.988360        -0.510536         2.667851
 H        -5.288432         1.215775         1.045833
 H        -4.532398         2.629271         0.439861
 H        -4.141736        -0.209448        -0.607769
 H        -3.229638         1.163238        -1.039860
 H        -2.772788        -0.937884         1.043054
