19
Iteration:  4446charge 0 multiplicity 1
 O         0.107901        -0.247257         0.053543
 C        -1.018187         0.515306         0.761372
 C        -1.311268         1.910026         0.621961
 C        -2.270772         1.206357         1.727653
 C        -1.039850         0.615177         2.374388
 O        -3.533669         1.811684         2.091256
 C        -4.345892         1.598192         0.792477
 C        -3.602680         0.474551        -0.143735
 C        -2.434895         0.006845         0.745054
 H         0.421012        -0.732168         0.842816
 H        -0.578739         2.576455         0.956227
 H        -1.784537         2.328238        -0.228452
 H        -0.369551         1.367168         2.730554
 H        -1.140435        -0.199989         3.028149
 H        -5.243385         1.221851         1.191229
 H        -4.621527         2.514335         0.271772
 H        -4.372467        -0.313898        -0.224342
 H        -3.306377         0.957849        -1.225567
 H        -2.572690        -0.870787         1.420881
