19
Iteration:  2491
 O         0.105941        -0.216403         0.169491
 C        -0.933233         0.454566         0.763592
 C        -1.334636         1.983960         0.716086
 C        -2.299830         1.210381         1.713809
 C        -1.142649         0.488742         2.285109
 O        -3.502546         1.806152         2.035569
 C        -4.288706         1.503633         0.862973
 C        -3.560127         0.648834        -0.149108
 C        -2.491169         0.030191         0.756925
 H        -0.249323        -0.734191        -0.600999
 H        -0.398235         2.431572         1.057615
 H        -1.561571         2.519112        -0.191796
 H        -0.343818         1.123729         2.860181
 H        -1.289056        -0.428039         2.717135
 H        -5.262314         0.928515         1.088288
 H        -4.662534         2.452730         0.518339
 H        -4.163576        -0.045832        -0.674587
 H        -3.078274         1.302099        -1.035582
 H        -2.703498        -1.029336         1.231424
