19
Iteration:  1996charge 0 multiplicity 1
 O        -0.004887        -0.221847         0.054032
 C        -0.926008         0.372802         0.822249
 C        -1.285900         1.872596         0.690512
 C        -2.275285         1.229147         1.688980
 C        -1.138285         0.559864         2.384318
 O        -3.528995         1.780238         2.051197
 C        -4.299175         1.485458         0.835098
 C        -3.558929         0.699778        -0.196334
 C        -2.444174         0.020128         0.723849
 H         0.831159         0.212080         0.448960
 H        -0.583284         2.628868         1.188086
 H        -1.899771         2.219771        -0.167141
 H        -0.411490         1.288755         2.818888
 H        -1.079888        -0.327990         2.914282
 H        -5.254691         1.102120         1.111094
 H        -4.408108         2.517353         0.620761
 H        -4.341968        -0.087479        -0.571321
 H        -3.166788         1.397242        -0.937703
 H        -2.679137        -0.972943         1.137290
