19
Iteration:  1147charge 0 multiplicity 1
 O         0.083051        -0.265237         0.010583
 C        -0.824638         0.462237         0.787249
 C        -1.306694         1.986984         0.870115
 C        -2.332249         1.251328         1.713611
 C        -1.026643         0.492960         2.347353
 O        -3.620247         1.735515         2.046554
 C        -4.237071         1.618150         0.694675
 C        -3.731482         0.487083        -0.185744
 C        -2.488854         0.086436         0.783429
 H         1.001852         0.126278         0.066452
 H        -0.625341         2.688085         1.351709
 H        -1.736439         2.303471        -0.080307
 H        -0.270290         1.048051         3.001062
 H        -1.175501        -0.379973         3.003874
 H        -5.297315         1.567407         1.072140
 H        -4.021639         2.608126         0.316487
 H        -4.364303        -0.417710        -0.361116
 H        -3.400865         0.843305        -1.167164
 H        -2.814713        -0.743268         1.384454
