19
Iteration:  4933charge 0 multiplicity 1
 O         0.077792        -0.295717         0.195884
 C        -0.968859         0.392055         0.745029
 C        -1.251903         1.981396         0.607125
 C        -2.234795         1.346746         1.721326
 C        -1.079675         0.519125         2.279624
 O        -3.448002         1.887672         1.965798
 C        -4.378250         1.467982         0.955229
 C        -3.710131         0.462714        -0.036014
 C        -2.451156         0.107190         0.647485
 H         0.887803         0.312273         0.199105
 H        -0.558413         2.634852         1.053899
 H        -1.804688         2.178919        -0.319058
 H        -0.500967         1.085392         2.956671
 H        -1.454692        -0.398223         2.644679
 H        -5.323662         0.951213         1.440222
 H        -4.659158         2.463692         0.318392
 H        -4.428820        -0.269920        -0.434016
 H        -3.406143         0.972984        -0.954976
 H        -2.591450        -0.932262         1.106164
