19
Iteration:  3549
 O         0.056280        -0.429401         0.079979
 C        -0.856336         0.425810         0.793476
 C        -1.203906         2.048808         0.677829
 C        -2.319571         1.312381         1.691465
 C        -1.049368         0.581262         2.314249
 O        -3.559473         1.886203         2.014661
 C        -4.561288         1.305324         0.859394
 C        -3.503300         0.669330        -0.105377
 C        -2.456887         0.115170         0.709897
 H         0.861696        -0.742136         0.639634
 H        -0.600457         2.792920         1.211550
 H        -1.555882         2.453118        -0.240963
 H        -0.359306         1.231228         2.802673
 H        -1.309339        -0.275171         2.904738
 H        -5.212315         0.724058         1.464478
 H        -4.948295         2.184321         0.443683
 H        -4.103787         0.035077        -0.786558
 H        -3.291700         1.466452        -0.810851
 H        -2.688868        -0.880969         1.195100
