19
Iteration:  3847
 O         0.107769        -0.248588         0.035428
 C        -0.930593         0.375044         0.799166
 C        -1.188919         1.866665         0.685028
 C        -2.252168         1.397679         1.677528
 C        -1.118578         0.651108         2.374277
 O        -3.611289         1.902160         2.009568
 C        -4.469203         1.327236         0.901147
 C        -3.536185         0.546862        -0.120675
 C        -2.404800         0.132224         0.785483
 H        -0.426338        -0.975479        -0.397532
 H        -0.426798         2.496228         1.160897
 H        -1.429159         2.197360        -0.333038
 H        -0.268405         1.258184         2.785556
 H        -1.424565        -0.130784         3.047600
 H        -5.132606         0.601218         1.342837
 H        -4.779998         2.185762         0.288821
 H        -4.123067        -0.243326        -0.548352
 H        -3.202758         1.252446        -1.013817
 H        -2.587655        -0.854426         1.359817
