19
Iteration:  1219
 O         0.109869        -0.226147         0.151591
 C        -0.963925         0.429140         0.783027
 C        -1.297523         1.912736         0.652711
 C        -2.318604         1.153557         1.748207
 C        -0.982711         0.532860         2.308591
 O        -3.626409         1.674796         2.051385
 C        -4.357340         1.654516         0.770458
 C        -3.599391         0.675619        -0.157582
 C        -2.476474         0.051483         0.769608
 H         0.861368         0.344217         0.300961
 H        -0.466348         2.456711         1.065566
 H        -1.628117         2.147700        -0.427652
 H        -0.350413         1.132685         2.811027
 H        -0.928998        -0.455813         2.849912
 H        -5.234530         1.200024         1.076694
 H        -4.480633         2.736978         0.549320
 H        -4.327794        -0.038714        -0.368411
 H        -3.278709         1.172141        -1.126688
 H        -2.622248        -1.003575         1.158530
