19
Iteration:  3239charge 0 multiplicity 1
 O        -0.024989        -0.155904         0.035623
 C        -0.912462         0.421944         0.814085
 C        -1.269592         1.981036         0.757585
 C        -2.296783         1.299634         1.732332
 C        -1.062967         0.470162         2.391965
 O        -3.540762         1.765923         2.067308
 C        -4.336676         1.539193         0.752677
 C        -3.589504         0.519669        -0.194610
 C        -2.362404         0.086955         0.762568
 H         0.089784        -1.123578         0.332278
 H        -0.541891         2.818219         0.923136
 H        -1.763733         2.200592        -0.210385
 H        -0.333151         1.036939         3.022168
 H        -1.266108        -0.437903         2.879307
 H        -5.394138         1.478338         1.006197
 H        -4.336135         2.564958         0.230228
 H        -4.320624        -0.317617        -0.412281
 H        -3.162033         0.905170        -1.180809
 H        -2.620303        -0.906085         1.200378
