19
Iteration:  3514
 O         0.035118        -0.261010         0.143763
 C        -0.984171         0.418654         0.831314
 C        -1.207090         1.936643         0.600461
 C        -2.278766         1.280184         1.657455
 C        -1.160822         0.542157         2.378743
 O        -3.482689         1.764249         2.062048
 C        -4.372375         1.543437         0.851599
 C        -3.560392         0.583439        -0.116652
 C        -2.424897         0.050814         0.678270
 H         0.769655         0.469001         0.104550
 H        -0.496028         2.660844         1.055810
 H        -1.681879         2.192123        -0.374880
 H        -0.453933         1.129989         2.836912
 H        -1.458843        -0.302340         2.970223
 H        -5.339673         1.163177         1.105806
 H        -4.648260         2.367563         0.247807
 H        -4.297778        -0.289269        -0.192913
 H        -3.357415         1.038400        -1.011310
 H        -2.675893        -0.953226         1.028722
