19
Iteration:  4188
 O         0.122591        -0.300338         0.131514
 C        -0.918638         0.399524         0.777792
 C        -1.152420         1.943268         0.652074
 C        -2.316405         1.391159         1.611976
 C        -1.090366         0.707105         2.315090
 O        -3.536410         1.920648         1.988086
 C        -4.409591         1.225692         0.953878
 C        -3.608250         0.627474        -0.187327
 C        -2.479855         0.062036         0.798388
 H        -0.305784        -1.100182        -0.041611
 H        -0.440355         2.545649         1.285403
 H        -1.427441         2.247885        -0.405416
 H        -0.379161         1.399181         2.785501
 H        -1.334778        -0.281043         2.864783
 H        -4.988768         0.422763         1.436389
 H        -5.211067         1.927852         0.819075
 H        -4.220531        -0.156512        -0.606342
 H        -3.223331         1.467587        -0.759026
 H        -2.799344        -0.866306         1.275653
