19
Iteration:   802charge 0 multiplicity 1
 O         0.167807        -0.204170         0.131819
 C        -0.968074         0.426734         0.759948
 C        -1.317754         1.857934         0.670846
 C        -2.308705         1.214759         1.701675
 C        -1.102354         0.542591         2.333033
 O        -3.593660         1.596079         2.007318
 C        -4.297875         1.717191         0.858668
 C        -3.593250         0.668697        -0.114305
 C        -2.499518         0.017109         0.763805
 H         0.858196         0.477892        -0.045250
 H        -0.569298         2.532131         1.188545
 H        -1.711918         2.250241        -0.256614
 H        -0.329855         1.270943         2.784321
 H        -1.203395        -0.272058         3.001027
 H        -5.319479         1.444372         1.115956
 H        -4.239448         2.658842         0.275909
 H        -4.364355        -0.176241        -0.376149
 H        -3.295593         1.043175        -1.087691
 H        -2.629725        -1.054580         1.127016
