19
Iteration:  1916
 O         0.120475        -0.194940         0.023827
 C        -0.889456         0.412777         0.775067
 C        -1.389575         1.904285         0.688357
 C        -2.313286         1.172740         1.690787
 C        -1.129063         0.492562         2.409147
 O        -3.539850         1.740314         2.065319
 C        -4.264032         1.703541         0.780657
 C        -3.630426         0.559625        -0.045204
 C        -2.474922         0.022635         0.747166
 H         0.910578         0.419149         0.202213
 H        -0.659586         2.622918         1.048619
 H        -1.550777         2.274411        -0.294123
 H        -0.420654         1.061570         2.893927
 H        -1.422906        -0.543948         2.879266
 H        -5.379724         1.661127         0.949249
 H        -4.189657         2.695066         0.207769
 H        -4.183080        -0.315777        -0.393753
 H        -3.380638         0.973498        -1.060946
 H        -2.592802        -1.001931         1.226747
