19
Iteration:  1244charge 0 multiplicity 1
 O         0.001967        -0.301840         0.084218
 C        -0.921117         0.449392         0.753626
 C        -1.301653         2.015022         0.726649
 C        -2.285398         1.257258         1.653256
 C        -1.184500         0.542463         2.392723
 O        -3.547145         1.743654         2.129784
 C        -4.328330         1.511405         0.861544
 C        -3.493240         0.560483        -0.201217
 C        -2.385614         0.062262         0.671561
 H         0.824492         0.214645        -0.166363
 H        -0.543330         2.668804         1.234877
 H        -1.729693         2.313618        -0.261848
 H        -0.404221         1.095590         2.944284
 H        -1.606902        -0.283249         2.995477
 H        -5.400839         1.217553         1.187110
 H        -4.380409         2.521666         0.456389
 H        -4.224963        -0.178172        -0.693086
 H        -3.128055         1.247086        -1.029598
 H        -2.553255        -0.878155         1.248122
