19
Iteration:  1931charge 0 multiplicity 1
 O         0.049930        -0.207491         0.075478
 C        -0.955368         0.456414         0.771866
 C        -1.277018         1.935754         0.734336
 C        -2.305599         1.239395         1.752718
 C        -1.079455         0.482500         2.387535
 O        -3.550262         1.748803         2.053539
 C        -4.256661         1.713955         0.828085
 C        -3.669894         0.460926        -0.205844
 C        -2.396312        -0.004548         0.676783
 H         0.979679         0.167444         0.061746
 H        -0.662799         2.828299         1.211713
 H        -2.061136         2.284503        -0.031985
 H        -0.374685         1.139752         3.049860
 H        -1.220876        -0.437383         2.825866
 H        -5.255996         1.487526         1.060858
 H        -4.023352         2.564146         0.331221
 H        -4.642081        -0.180780        -0.179972
 H        -3.459706         0.798020        -1.243180
 H        -2.656017        -0.934386         1.137504
