19
Iteration:  4141charge 0 multiplicity 1
 O         0.085117        -0.130276         0.045383
 C        -0.915312         0.426447         0.829769
 C        -1.187201         1.952978         0.673335
 C        -2.313282         1.293501         1.636141
 C        -1.057895         0.556423         2.380137
 O        -3.495587         1.944535         1.945642
 C        -4.395654         1.446405         0.856105
 C        -3.670632         0.407137        -0.098181
 C        -2.469879         0.032395         0.801736
 H         0.047054        -1.138565         0.198573
 H        -0.345426         2.562327         1.186099
 H        -1.563914         2.353845        -0.299878
 H        -0.253690         1.202159         2.905809
 H        -1.412868        -0.399465         2.937283
 H        -5.139212         0.912410         1.369169
 H        -4.979514         2.281735         0.347493
 H        -4.378541        -0.343750        -0.191070
 H        -3.246161         0.738299        -1.043573
 H        -2.702368        -0.769316         1.412572
