19
Iteration:  3278charge 0 multiplicity 1
 O         0.149119        -0.188872         0.126444
 C        -0.968095         0.347320         0.778764
 C        -1.181923         1.872873         0.724175
 C        -2.262572         1.287311         1.659897
 C        -1.133993         0.576606         2.379042
 O        -3.474814         1.880457         1.999531
 C        -4.470722         1.355524         0.898705
 C        -3.647663         0.716268        -0.220601
 C        -2.474141         0.056945         0.703542
 H         0.146043        -1.128621         0.010040
 H        -0.326320         2.417702         1.211102
 H        -1.506727         2.239960        -0.235275
 H        -0.339365         1.252400         2.696249
 H        -1.442582        -0.327471         3.034829
 H        -5.112636         0.504443         1.342279
 H        -5.108542         2.227936         0.669658
 H        -4.115709         0.110744        -0.946246
 H        -3.314941         1.675030        -0.609138
 H        -2.659351        -0.787752         1.360049
