19
Iteration:  2005
 O         0.037215        -0.246229         0.093601
 C        -0.982149         0.433646         0.781003
 C        -1.313040         1.904306         0.729633
 C        -2.285261         1.207506         1.661705
 C        -1.112829         0.547631         2.374867
 O        -3.510450         1.785697         2.015544
 C        -4.332437         1.541784         0.901380
 C        -3.571716         0.660398        -0.163662
 C        -2.441102         0.004639         0.718974
 H         0.955180         0.149168         0.208731
 H        -0.584788         2.573640         1.203104
 H        -1.601410         2.317388        -0.223381
 H        -0.354338         1.185234         2.775005
 H        -1.204558        -0.475805         2.880529
 H        -5.147511         0.908531         1.278874
 H        -4.692754         2.499101         0.321612
 H        -4.169415         0.060617        -0.896083
 H        -3.083745         1.305953        -0.907125
 H        -2.753283        -0.962277         1.201646
