19
Iteration:   243
 O         0.251697        -0.096228         0.131110
 C        -0.962754         0.412448         0.807767
 C        -1.303627         1.911259         0.749869
 C        -2.278431         1.177440         1.688201
 C        -1.178197         0.331735         2.287200
 O        -3.580526         1.611370         2.098854
 C        -4.245309         1.710836         0.765582
 C        -3.679505         0.707280        -0.166143
 C        -2.501763         0.109863         0.650722
 H         0.710023        -0.438363         1.001892
 H        -0.633974         2.712558         1.252955
 H        -1.631149         2.211820        -0.197158
 H        -0.353928         0.811913         2.897538
 H        -1.472664        -0.611413         2.751442
 H        -5.304882         1.500967         0.951130
 H        -4.215873         2.741085         0.272974
 H        -4.364034        -0.100728        -0.373813
 H        -3.455254         1.144991        -1.156865
 H        -2.883786        -0.751445         1.154912
