19
Iteration:  3892
 O         0.204146        -0.182351         0.215456
 C        -0.952153         0.335373         0.733897
 C        -1.229447         1.934918         0.640836
 C        -2.308181         1.330981         1.605505
 C        -1.144945         0.505956         2.279817
 O        -3.465343         2.015101         1.891870
 C        -4.468578         1.314557         1.055800
 C        -3.667687         0.591054        -0.088418
 C        -2.487990         0.061455         0.637434
 H         0.791468        -0.735251         0.822092
 H        -0.417849         2.461727         1.155691
 H        -1.552118         2.408784        -0.251412
 H        -0.354404         0.992576         2.814993
 H        -1.404457        -0.375611         2.844796
 H        -4.912382         0.537306         1.770633
 H        -5.037987         2.111628         0.568429
 H        -4.121422        -0.334774        -0.513780
 H        -3.454916         1.370571        -0.925483
 H        -2.911435        -0.842330         1.242527
