19
Iteration:   335
 O         0.128623        -0.209354         0.152470
 C        -0.913475         0.427639         0.818131
 C        -1.193759         1.889801         0.828388
 C        -2.324485         1.193317         1.685662
 C        -1.151780         0.396661         2.395909
 O        -3.506838         1.859863         1.912318
 C        -4.435417         1.449722         0.911600
 C        -3.562163         0.764072        -0.203788
 C        -2.459720         0.067159         0.600276
 H         0.204143         0.289860        -0.652239
 H        -0.452720         2.471785         1.298988
 H        -1.606016         2.453908        -0.030401
 H        -0.557650         1.005506         3.093126
 H        -1.295306        -0.603986         2.874298
 H        -5.022669         0.712679         1.498648
 H        -5.164916         2.246867         0.648092
 H        -4.264903        -0.009154        -0.720557
 H        -3.172432         1.411762        -1.015491
 H        -2.785448        -0.851152         1.167939
