19
Iteration:  1528
 O         0.035483        -0.202501         0.042213
 C        -0.890038         0.499793         0.808178
 C        -1.275303         1.974558         0.726608
 C        -2.355333         1.183045         1.671683
 C        -1.095537         0.495807         2.364643
 O        -3.505812         1.760139         2.067653
 C        -4.332939         1.613500         0.791711
 C        -3.650731         0.539912        -0.178222
 C        -2.405694        -0.020437         0.762153
 H         0.933285         0.068630         0.290105
 H        -0.618149         2.571710         1.438383
 H        -1.451908         2.490853        -0.209708
 H        -0.407900         1.047387         3.119126
 H        -1.304778        -0.445292         2.918069
 H        -5.392646         1.500356         1.051065
 H        -4.377029         2.651089         0.371439
 H        -4.463256        -0.203252        -0.399433
 H        -3.340792         0.830340        -1.140766
 H        -2.652331        -1.075058         1.074149
