19
Iteration:   669charge 0 multiplicity 1
 O         0.083624        -0.430727         0.214092
 C        -0.926052         0.501470         0.748399
 C        -1.179257         2.022482         0.750206
 C        -2.255836         1.242124         1.699311
 C        -1.049457         0.520457         2.356134
 O        -3.547800         1.795508         2.013415
 C        -4.483211         1.329118         0.907469
 C        -3.755634         0.761383        -0.236329
 C        -2.351618         0.215092         0.569539
 H         0.987790        -0.165056         0.580097
 H        -0.686787         2.728206         1.325837
 H        -1.467341         2.684662        -0.176991
 H        -0.087937         0.997206         2.728935
 H        -1.302937        -0.485157         2.751019
 H        -5.086929         0.504430         1.291507
 H        -5.139078         2.207934         0.784123
 H        -4.238453        -0.199208        -0.579332
 H        -3.672714         1.452664        -1.163350
 H        -2.532498        -0.873350         0.914783
