19
Iteration:  2110
 O         0.122949        -0.276193         0.247170
 C        -0.922699         0.458477         0.790293
 C        -1.146655         1.914832         0.739198
 C        -2.284814         1.301675         1.671149
 C        -1.063359         0.422011         2.289660
 O        -3.483019         1.873665         2.006303
 C        -4.463195         1.303885         0.933615
 C        -3.647124         0.716520        -0.222342
 C        -2.532501         0.215758         0.651453
 H         0.056462        -0.468083        -0.750985
 H        -0.366775         2.505184         1.234424
 H        -1.486630         2.298215        -0.233418
 H        -0.499287         1.019695         2.944483
 H        -1.349171        -0.564579         2.845799
 H        -5.124794         0.450735         1.155170
 H        -5.050448         2.164965         0.644187
 H        -4.392395         0.023185        -0.766316
 H        -3.216921         1.576673        -0.803963
 H        -2.743034        -0.761358         1.080401
