19
Iteration:   491
 O         0.162315        -0.184645         0.214122
 C        -0.935499         0.425336         0.737262
 C        -1.306485         1.976798         0.789006
 C        -2.251938         1.199740         1.700259
 C        -1.078946         0.433360         2.318520
 O        -3.531191         1.717707         1.958393
 C        -4.404262         1.664731         0.853481
 C        -3.665785         0.525612        -0.134253
 C        -2.474426         0.080944         0.687941
 H         0.550056         0.331815        -0.578781
 H        -0.519907         2.575717         1.254522
 H        -1.615388         2.354794        -0.124601
 H        -0.329676         0.938280         2.907239
 H        -1.309331        -0.516765         2.750880
 H        -5.410233         1.396267         1.212451
 H        -4.512896         2.602311         0.361163
 H        -4.351883        -0.228014        -0.501272
 H        -3.185131         1.006445        -1.014087
 H        -2.669696        -0.876383         1.185397
