19
Iteration:  3205charge 0 multiplicity 1
 O         0.203028        -0.048372         0.059988
 C        -0.934507         0.387490         0.744321
 C        -1.337932         1.868450         0.686163
 C        -2.305077         1.220174         1.724464
 C        -1.092823         0.559482         2.418820
 O        -3.631876         1.703392         2.070858
 C        -4.240623         1.812896         0.723481
 C        -3.724463         0.497993        -0.053316
 C        -2.428537        -0.143455         0.735509
 H         0.285776        -1.060612        -0.032874
 H        -0.551356         2.610930         1.155350
 H        -1.814527         2.178293        -0.250983
 H        -0.397628         1.318499         2.788128
 H        -1.308614        -0.292195         2.979039
 H        -5.251058         2.022814         0.939797
 H        -3.605651         2.693678         0.214565
 H        -4.619807        -0.143632        -0.058626
 H        -3.364268         0.712086        -1.174445
 H        -2.411052        -1.158083         1.229946
