19
Iteration:  3380
 O         0.103687        -0.220924         0.054676
 C        -0.958379         0.344281         0.799210
 C        -1.320078         1.897955         0.722215
 C        -2.297183         1.349097         1.660553
 C        -1.163584         0.511437         2.361758
 O        -3.528414         1.832690         1.986426
 C        -4.365503         1.451443         0.903402
 C        -3.463007         0.659274        -0.150717
 C        -2.465868         0.099207         0.731633
 H         0.561630        -1.068369         0.365369
 H        -0.507106         2.623099         1.092184
 H        -1.725790         2.398455        -0.223044
 H        -0.330192         1.036848         2.885760
 H        -1.477010        -0.321446         2.946510
 H        -5.138863         0.763479         1.309066
 H        -5.019567         2.287379         0.503779
 H        -4.137907        -0.030639        -0.682894
 H        -3.008534         1.380689        -0.895009
 H        -2.682024        -0.807922         1.333469
