19
Iteration:  4976
 O         0.182035        -0.282028         0.156519
 C        -0.967682         0.347109         0.749844
 C        -1.238226         1.876159         0.578881
 C        -2.286754         1.273785         1.622601
 C        -1.098865         0.670863         2.434777
 O        -3.521595         1.850169         2.050210
 C        -4.381574         1.418037         0.976279
 C        -3.637853         0.654232        -0.136814
 C        -2.501900         0.022622         0.710791
 H         0.002302        -0.168327        -0.792430
 H        -0.365848         2.394206         0.925581
 H        -1.705220         2.109804        -0.396050
 H        -0.302612         1.382409         2.620925
 H        -1.155815        -0.121894         3.159362
 H        -5.247080         0.880550         1.486688
 H        -4.779598         2.345096         0.384583
 H        -4.202013         0.033774        -0.830188
 H        -3.257330         1.484414        -0.777069
 H        -2.859677        -0.791504         1.317346
