19
Iteration:  3080
 O         0.122203        -0.224282         0.153155
 C        -0.920704         0.381776         0.796451
 C        -1.165379         1.874012         0.672731
 C        -2.248564         1.324116         1.646214
 C        -1.051384         0.492923         2.397552
 O        -3.546168         1.942272         1.904736
 C        -4.473740         1.238393         1.014380
 C        -3.589860         0.725753        -0.249583
 C        -2.513904         0.177603         0.718419
 H        -0.121129        -1.217965         0.104855
 H        -0.528782         2.585085         1.202541
 H        -1.518312         2.312952        -0.335231
 H        -0.309106         1.167763         2.870306
 H        -1.275315        -0.406273         3.019818
 H        -4.999904         0.380929         1.648404
 H        -5.154367         2.099217         0.814704
 H        -4.075686         0.007731        -0.937174
 H        -3.391791         1.581920        -0.813607
 H        -2.937974        -0.766725         1.174068
