19
Iteration:  4559charge 0 multiplicity 1
 O         0.129780        -0.260896         0.145105
 C        -0.987019         0.367628         0.757871
 C        -1.217694         1.847384         0.629195
 C        -2.303873         1.306235         1.661884
 C        -1.087517         0.689123         2.400699
 O        -3.462739         1.921850         1.891811
 C        -4.472300         1.315313         1.027749
 C        -3.579623         0.633927        -0.112503
 C        -2.478207         0.094712         0.743236
 H        -0.168753        -0.863633        -0.505894
 H        -0.429797         2.496056         1.079669
 H        -1.487532         2.393351        -0.257357
 H        -0.278772         1.290831         2.794681
 H        -1.235404        -0.121099         3.128003
 H        -5.086127         0.502246         1.399936
 H        -5.134087         2.085254         0.714069
 H        -4.050606        -0.087308        -0.786810
 H        -3.172785         1.392420        -0.989357
 H        -2.774396        -0.911737         1.170486
