19
Iteration:  4966
 O         0.234456        -0.312524         0.125803
 C        -0.925646         0.325167         0.793408
 C        -1.223442         1.806531         0.598615
 C        -2.305473         1.267544         1.683149
 C        -1.055687         0.689685         2.330491
 O        -3.515976         1.822169         2.030300
 C        -4.423965         1.477688         0.915687
 C        -3.645104         0.644668        -0.110985
 C        -2.548365         0.090546         0.748724
 H         0.223647         0.122678        -0.708741
 H        -0.570957         2.591108         0.910210
 H        -1.524582         2.248345        -0.360652
 H        -0.542499         1.432829         2.865872
 H        -1.318228        -0.093532         3.008825
 H        -5.211456         0.752774         1.446616
 H        -5.091665         2.407995         0.535002
 H        -4.462768         0.026237        -0.552377
 H        -3.252001         1.328846        -0.850829
 H        -2.866974        -0.805218         1.337589
