19
Iteration:  2590
 O         0.224309        -0.265600         0.179258
 C        -0.904104         0.470572         0.775761
 C        -1.406409         1.903131         0.665432
 C        -2.388484         1.175064         1.737785
 C        -0.974572         0.511599         2.288312
 O        -3.602012         1.681328         2.084153
 C        -4.298895         1.769313         0.805487
 C        -3.649209         0.622834        -0.127503
 C        -2.462590        -0.017420         0.749726
 H         0.385130        -0.192496        -0.728501
 H        -0.698508         2.539719         1.135501
 H        -1.945201         2.374567        -0.186920
 H        -0.296493         1.341262         2.747805
 H        -1.342631        -0.382885         2.772202
 H        -5.452442         1.677399         1.038220
 H        -4.090041         2.735539         0.334752
 H        -4.391249        -0.131640        -0.514463
 H        -3.275982         1.027375        -1.172313
 H        -2.500694        -1.073977         1.265567
