19
Iteration:  1035charge 0 multiplicity 1
 O         0.089723        -0.296646         0.009890
 C        -0.974754         0.402466         0.746920
 C        -1.184547         1.929227         0.729122
 C        -2.329926         1.300870         1.733601
 C        -1.233228         0.550952         2.432869
 O        -3.555790         1.896238         2.033518
 C        -4.330709         1.361980         0.922799
 C        -3.528837         0.622096        -0.164985
 C        -2.434716         0.156238         0.634916
 H         0.942923        -0.170353         0.359086
 H        -0.395718         2.519085         1.086326
 H        -1.680594         2.290703        -0.225047
 H        -0.534255         0.964314         3.048034
 H        -1.515318        -0.449517         2.875545
 H        -5.003053         0.677011         1.397028
 H        -4.879699         2.228769         0.568507
 H        -4.032921        -0.202527        -0.575162
 H        -3.327892         1.305137        -1.065565
 H        -2.583836        -0.840472         1.044184
