19
Iteration:  1406charge 0 multiplicity 1
 O         0.055771        -0.267846         0.005036
 C        -0.908946         0.410661         0.725637
 C        -1.246498         1.982320         0.760945
 C        -2.243996         1.268758         1.736710
 C        -1.139325         0.486895         2.475862
 O        -3.462643         1.900272         1.951265
 C        -4.441599         1.395352         0.873633
 C        -3.586611         0.630358        -0.224370
 C        -2.477456         0.008227         0.764316
 H         0.843896         0.193376         0.172508
 H        -0.422495         2.535043         1.268163
 H        -1.776285         2.484207        -0.001414
 H        -0.486836         1.195180         2.986274
 H        -1.462939        -0.355077         3.266511
 H        -5.158583         0.665166         1.269320
 H        -4.993467         2.235883         0.430099
 H        -4.189844         0.067275        -0.896087
 H        -3.096836         1.372874        -0.819017
 H        -2.876365        -0.909718         1.295867
