19
Iteration:  1581
 O         0.069105        -0.177750         0.017679
 C        -0.889056         0.451439         0.785703
 C        -1.226453         1.898213         0.717208
 C        -2.339748         1.165656         1.725109
 C        -1.138734         0.539084         2.427455
 O        -3.599776         1.687815         2.058935
 C        -4.253646         1.704779         0.799816
 C        -3.652629         0.504775        -0.101085
 C        -2.438168         0.010548         0.728646
 H         0.783816         0.456472        -0.157309
 H        -0.685265         2.790652         1.090162
 H        -1.577151         2.144749        -0.240396
 H        -0.472467         1.300709         2.931922
 H        -1.333288        -0.523095         2.767315
 H        -5.398192         1.612679         0.957446
 H        -3.850289         2.602332         0.223696
 H        -4.427232        -0.165815        -0.480315
 H        -3.225287         0.962539        -0.982540
 H        -2.732355        -0.850079         1.308532
