19
Iteration:   286
 O         0.060493        -0.231020         0.117245
 C        -0.823186         0.483919         0.836685
 C        -1.177923         1.980206         0.803845
 C        -2.330675         1.177502         1.720511
 C        -1.127724         0.486126         2.369880
 O        -3.585548         1.648366         2.047355
 C        -4.375988         1.500037         0.787117
 C        -3.596771         0.737241        -0.230553
 C        -2.417429         0.178769         0.634483
 H        -0.267159        -1.170974        -0.052172
 H        -0.549159         2.762099         1.411299
 H        -1.430487         2.368112        -0.165603
 H        -0.436472         1.026651         3.047387
 H        -1.278277        -0.472711         2.842897
 H        -5.341760         1.073655         1.071142
 H        -4.577398         2.567237         0.595629
 H        -4.236761        -0.042048        -0.554554
 H        -3.344636         1.331608        -1.100601
 H        -2.602151        -0.849811         0.843540
