19
Iteration:  4935
 O         0.086283        -0.294893         0.199626
 C        -0.968718         0.396787         0.755665
 C        -1.248034         1.974298         0.591176
 C        -2.246090         1.337682         1.706260
 C        -1.058574         0.505596         2.298076
 O        -3.461610         1.888572         1.972407
 C        -4.394800         1.476976         0.957154
 C        -3.702211         0.467696        -0.046609
 C        -2.447127         0.110976         0.640241
 H         0.900545         0.321395         0.110700
 H        -0.530510         2.690894         1.001676
 H        -1.780954         2.169248        -0.315460
 H        -0.462900         1.085786         2.951244
 H        -1.443947        -0.436061         2.696317
 H        -5.320399         0.983229         1.461418
 H        -4.663264         2.411143         0.311566
 H        -4.498342        -0.274710        -0.489548
 H        -3.438590         1.042174        -0.866438
 H        -2.630426        -0.935781         1.197904
