19
Iteration:  2792
 O         0.080387        -0.226678         0.120222
 C        -0.955574         0.437216         0.832013
 C        -1.078408         1.844991         0.669539
 C        -2.307148         1.234225         1.722808
 C        -1.118648         0.536204         2.389078
 O        -3.507960         1.836461         1.985581
 C        -4.424420         1.431398         0.898206
 C        -3.665915         0.659773        -0.155918
 C        -2.502588         0.069273         0.657108
 H         0.615553         0.258661        -0.487342
 H        -0.439238         2.563914         1.314966
 H        -1.427386         2.255974        -0.289357
 H        -0.259251         1.010272         2.859574
 H        -1.448973        -0.283410         2.943908
 H        -5.252044         0.810144         1.147301
 H        -4.993202         2.331798         0.604228
 H        -4.065936        -0.093802        -0.770883
 H        -3.278794         1.437811        -0.847656
 H        -2.643325        -0.811274         1.314773
