19
Iteration:  4900charge 0 multiplicity 1
 O         0.069817        -0.270951        -0.010427
 C        -0.859634         0.396137         0.816340
 C        -1.199405         1.932026         0.660245
 C        -2.245401         1.303204         1.682459
 C        -1.034487         0.614195         2.363770
 O        -3.551862         1.866803         1.997178
 C        -4.443099         1.499314         0.904213
 C        -3.703489         0.471643        -0.090953
 C        -2.481578         0.081536         0.756928
 H         0.715803        -0.688855         0.645262
 H        -0.561202         2.702057         1.037416
 H        -1.507554         2.267487        -0.350965
 H        -0.449638         1.303183         2.923140
 H        -1.185735        -0.261885         2.933184
 H        -5.463433         1.133845         1.299969
 H        -4.675105         2.535084         0.364554
 H        -4.275194        -0.384617        -0.466341
 H        -3.279431         1.011085        -0.914736
 H        -2.666591        -0.928724         1.252509
