19
Iteration:  3504
 O         0.113056        -0.237887         0.130166
 C        -0.899724         0.406098         0.802298
 C        -1.272461         1.885797         0.604751
 C        -2.306465         1.267476         1.633687
 C        -1.142276         0.522208         2.393245
 O        -3.548581         1.809912         2.074301
 C        -4.358117         1.592998         0.823928
 C        -3.654952         0.537592        -0.097157
 C        -2.436332         0.042616         0.743855
 H         0.704651         0.527445        -0.210816
 H        -0.547191         2.567552         1.067112
 H        -1.501424         2.178797        -0.427636
 H        -0.503253         1.046552         3.013866
 H        -1.365898        -0.470809         2.719631
 H        -5.338639         1.377001         1.189550
 H        -4.246068         2.536360         0.389241
 H        -4.155218        -0.329266        -0.608067
 H        -3.313578         1.052808        -0.934687
 H        -2.589721        -0.903965         1.314832
