19
Iteration:  2738charge 0 multiplicity 1
 O         0.127015        -0.310467         0.315001
 C        -0.923965         0.494512         0.784046
 C        -1.186247         1.969542         0.704130
 C        -2.280044         1.271288         1.625291
 C        -1.109626         0.429519         2.296306
 O        -3.477400         1.870349         1.927978
 C        -4.508071         1.311957         1.049409
 C        -3.679237         0.743627        -0.179519
 C        -2.413933         0.153393         0.535606
 H        -0.028059        -0.680271        -0.586578
 H        -0.218084         2.449126         1.258087
 H        -1.424768         2.571788        -0.208093
 H        -0.449709         1.076460         2.873976
 H        -1.132102        -0.546021         2.690750
 H        -4.939355         0.431690         1.509833
 H        -5.190849         2.232811         0.768976
 H        -4.222061        -0.040100        -0.674018
 H        -3.429550         1.575268        -0.862615
 H        -2.806297        -0.714166         1.195955
