19
Iteration:   329
 O         0.134282        -0.198629         0.146976
 C        -0.944866         0.415158         0.827380
 C        -1.218209         1.882889         0.797124
 C        -2.330686         1.197297         1.658589
 C        -1.172197         0.412764         2.349674
 O        -3.515139         1.881038         1.977306
 C        -4.410661         1.440419         0.878243
 C        -3.538058         0.753899        -0.185661
 C        -2.469030         0.048414         0.654842
 H         0.004645         0.232654        -0.700497
 H        -0.337055         2.358906         1.402754
 H        -1.534908         2.481718        -0.035752
 H        -0.594168         1.017928         3.090134
 H        -1.293538        -0.554031         2.802906
 H        -4.969490         0.643732         1.407331
 H        -5.064318         2.204410         0.476043
 H        -4.074134         0.122642        -0.799452
 H        -3.070816         1.496368        -0.827449
 H        -2.630902        -0.935407         1.069147
