19
Iteration:  3181charge 0 multiplicity 1
 O         0.209569         0.014067         0.160976
 C        -0.914013         0.412145         0.775467
 C        -1.427371         1.793870         0.597430
 C        -2.335794         1.112051         1.688510
 C        -1.128877         0.507638         2.367110
 O        -3.507647         1.732299         2.054275
 C        -4.119273         1.737675         0.757900
 C        -3.753252         0.520360        -0.098108
 C        -2.501202         0.039845         0.766829
 H         0.384672        -0.904587         0.110897
 H        -0.837949         2.739347         0.989340
 H        -1.788565         1.873098        -0.451014
 H        -0.436125         1.148842         2.791985
 H        -1.359445        -0.436329         2.911747
 H        -5.115809         1.644960         1.101078
 H        -3.757972         2.741893         0.313972
 H        -4.624310        -0.091169         0.109702
 H        -3.620991         0.631169        -1.232507
 H        -2.577331        -0.968733         1.286123
