19
Iteration:  4386
 O         0.216426        -0.040518         0.117846
 C        -0.937172         0.391368         0.792254
 C        -1.328059         1.828425         0.587731
 C        -2.351845         1.243505         1.713327
 C        -1.103076         0.578238         2.375872
 O        -3.534572         1.805603         2.030707
 C        -4.249735         1.638238         0.784371
 C        -3.723568         0.441872        -0.022975
 C        -2.428800        -0.027131         0.721358
 H        -0.065569        -0.932406        -0.287312
 H        -0.604352         2.606358         1.032586
 H        -1.610442         2.134788        -0.468627
 H        -0.266570         1.243305         2.790380
 H        -1.293464        -0.247636         3.184300
 H        -5.347665         1.540651         1.098718
 H        -4.006673         2.595322         0.286815
 H        -4.421667        -0.440016        -0.066247
 H        -3.677678         0.792640        -0.986792
 H        -2.806690        -0.865272         1.252752
