19
Iteration:  3637charge 0 multiplicity 1
 O         0.201462        -0.170722         0.252574
 C        -0.918885         0.351126         0.781786
 C        -1.221591         1.848256         0.694929
 C        -2.273398         1.395157         1.646654
 C        -1.005988         0.476321         2.287877
 O        -3.505801         1.917360         1.964388
 C        -4.500906         1.422121         0.936580
 C        -3.702551         0.603393        -0.188669
 C        -2.510507         0.093141         0.713031
 H         0.129699        -1.016238        -0.320265
 H        -0.502164         2.584130         1.071407
 H        -1.448659         2.315424        -0.258498
 H        -0.231004         0.992249         2.812306
 H        -1.317242        -0.403642         2.784948
 H        -5.042390         0.664609         1.466783
 H        -5.029115         2.299033         0.567260
 H        -4.390226        -0.224860        -0.516473
 H        -3.380400         1.143985        -1.198350
 H        -2.970559        -0.766155         1.291883
