19
Iteration:  4985charge 0 multiplicity 1
 O         0.073578        -0.245502         0.193281
 C        -0.950681         0.388364         0.750480
 C        -1.267578         1.871325         0.575864
 C        -2.230048         1.312025         1.638869
 C        -1.121009         0.638431         2.385889
 O        -3.468663         1.848794         2.023544
 C        -4.456946         1.409108         1.003867
 C        -3.584429         0.652079        -0.157527
 C        -2.462340         0.008120         0.734383
 H         0.028637        -0.566394        -0.716500
 H        -0.470149         2.567639         0.952995
 H        -1.604655         2.261533        -0.452421
 H        -0.172384         1.235418         2.696876
 H        -1.287023        -0.241890         3.038809
 H        -5.281596         0.849015         1.328290
 H        -4.778993         2.368644         0.676976
 H        -4.078710        -0.116726        -0.674820
 H        -3.115225         1.368359        -0.978939
 H        -2.705932        -0.933384         1.121291
