19
Iteration:  2824
 O         0.038863        -0.337566         0.040061
 C        -0.899505         0.456394         0.755546
 C        -1.344963         2.005573         0.711377
 C        -2.260077         1.290984         1.770648
 C        -1.109657         0.520807         2.380331
 O        -3.560253         1.768844         2.060959
 C        -4.270025         1.509408         0.806136
 C        -3.601434         0.579552        -0.139877
 C        -2.430152         0.096210         0.692484
 H         0.941334        -0.054186         0.455965
 H        -0.641735         2.690872         1.164942
 H        -1.874787         2.318458        -0.188189
 H        -0.274942         1.097418         2.809383
 H        -1.533232        -0.423673         2.789951
 H        -5.236343         1.037629         1.108125
 H        -4.361755         2.531824         0.444783
 H        -4.268664        -0.194437        -0.514334
 H        -3.263715         1.161935        -1.029821
 H        -2.820760        -0.781826         1.255875
