19
Iteration:  1287charge 0 multiplicity 1
 O         0.076316        -0.252098         0.023279
 C        -0.983820         0.384533         0.755029
 C        -1.197553         1.944305         0.780795
 C        -2.294353         1.390382         1.754139
 C        -1.079454         0.475901         2.369513
 O        -3.581800         1.892359         2.065542
 C        -4.462514         1.452677         0.864145
 C        -3.572920         0.518296        -0.235057
 C        -2.432070         0.064921         0.685530
 H         0.982949         0.075774         0.392532
 H        -0.344871         2.429452         1.366027
 H        -1.480018         2.437862        -0.180046
 H        -0.367763         0.985405         2.925578
 H        -1.253684        -0.409985         2.965619
 H        -5.301682         0.905963         1.378544
 H        -4.743145         2.310212         0.313474
 H        -4.057739        -0.287967        -0.882023
 H        -3.131194         1.307157        -0.895601
 H        -2.616438        -0.971278         1.136591
