19
Iteration:   772charge 0 multiplicity 1
 O         0.070907        -0.338697         0.103036
 C        -0.884174         0.514055         0.763583
 C        -1.171108         2.013196         0.691689
 C        -2.291326         1.306237         1.727037
 C        -1.162530         0.486475         2.406654
 O        -3.553130         1.693984         2.144089
 C        -4.392474         1.481376         0.851010
 C        -3.609343         0.561465        -0.285750
 C        -2.468056         0.194160         0.706881
 H         0.817533         0.109500        -0.387577
 H        -0.463683         2.675179         1.233558
 H        -1.570085         2.345540        -0.181129
 H        -0.426976         1.087003         3.032547
 H        -1.571807        -0.480867         2.841277
 H        -5.411155         1.282871         1.224584
 H        -4.471287         2.430335         0.271558
 H        -4.132465        -0.334795        -0.553052
 H        -3.371603         1.157177        -1.109639
 H        -2.601678        -0.849877         0.982160
