19
Iteration:  1543
 O         0.026477        -0.220312         0.053794
 C        -0.889085         0.463997         0.797825
 C        -1.291949         2.003323         0.861200
 C        -2.249919         1.216087         1.720788
 C        -1.056885         0.428015         2.364490
 O        -3.541690         1.774720         2.006450
 C        -4.261487         1.613513         0.759000
 C        -3.699307         0.424537        -0.135144
 C        -2.516557         0.118251         0.677282
 H         0.944203         0.250316         0.052361
 H        -0.626314         2.713383         1.314654
 H        -1.898835         2.363799        -0.079967
 H        -0.421759         1.118265         2.925976
 H        -1.185687        -0.560363         2.781751
 H        -5.285104         1.535615         1.052745
 H        -4.126642         2.498380         0.154375
 H        -4.233144        -0.515462        -0.391476
 H        -3.409824         1.111163        -0.998489
 H        -2.601138        -0.807150         1.312229
