19
Iteration:   283charge 0 multiplicity 1
 O         0.060557        -0.244330         0.114009
 C        -0.821601         0.516582         0.828339
 C        -1.156790         1.986837         0.813871
 C        -2.359325         1.167279         1.722581
 C        -1.126916         0.484968         2.367970
 O        -3.579766         1.645940         2.058057
 C        -4.389521         1.520340         0.799225
 C        -3.601502         0.727080        -0.237356
 C        -2.406800         0.159357         0.592789
 H        -0.225225        -1.118520         0.073550
 H        -0.638907         2.759007         1.461769
 H        -1.399702         2.323834        -0.172521
 H        -0.442545         1.065467         3.023503
 H        -1.309532        -0.440030         2.863536
 H        -5.361332         1.141941         1.145548
 H        -4.462494         2.530708         0.530516
 H        -4.217296        -0.077042        -0.529993
 H        -3.360456         1.317102        -1.083096
 H        -2.587512        -0.881023         0.919350
