19
Iteration:  3165charge 0 multiplicity 1
 O         0.248298        -0.030326         0.154939
 C        -0.942256         0.380245         0.748165
 C        -1.371617         1.913786         0.616780
 C        -2.312539         1.234018         1.684889
 C        -1.093744         0.484202         2.331564
 O        -3.497259         1.746634         2.069192
 C        -4.266261         1.775552         0.779342
 C        -3.719827         0.462237        -0.055351
 C        -2.516346        -0.102277         0.731443
 H         0.303249        -0.888255         0.539133
 H        -0.623561         2.567430         0.943552
 H        -1.907161         2.239038        -0.272985
 H        -0.278350         1.077292         2.902484
 H        -1.353229        -0.506594         2.773482
 H        -5.393969         1.844379         0.878508
 H        -4.109092         2.670956         0.237094
 H        -4.427382        -0.360038        -0.259380
 H        -3.396479         0.939390        -0.953809
 H        -2.817386        -1.016103         1.220432
