19
Iteration:  1790charge 0 multiplicity 1
 O         0.103825        -0.290442         0.057636
 C        -0.894824         0.428811         0.792438
 C        -1.316751         1.953018         0.755180
 C        -2.307669         1.292462         1.682181
 C        -1.159232         0.464453         2.329595
 O        -3.475290         1.888452         1.976580
 C        -4.442186         1.379188         0.910575
 C        -3.604004         0.664730        -0.116626
 C        -2.448666         0.101376         0.654498
 H         0.924907        -0.153478         0.656265
 H        -0.380566         2.393289         1.063105
 H        -1.773202         2.364411        -0.168700
 H        -0.393422         1.179692         2.856951
 H        -1.387835        -0.430983         2.816663
 H        -4.964810         0.624797         1.504068
 H        -4.708203         2.375570         0.520347
 H        -4.197925        -0.084241        -0.688211
 H        -3.171740         1.398431        -0.720638
 H        -2.592996        -0.846073         1.145493
