19
Iteration:  1278charge 0 multiplicity 1
 O         0.012035        -0.262795         0.026987
 C        -0.890631         0.476540         0.704339
 C        -1.125411         1.923683         0.784851
 C        -2.293147         1.285090         1.724779
 C        -1.071154         0.463280         2.462919
 O        -3.595902         1.844579         2.047783
 C        -4.453240         1.444039         0.832220
 C        -3.612708         0.553146        -0.225211
 C        -2.441871         0.119216         0.745599
 H         0.932149         0.161943         0.218085
 H        -0.245377         2.584400         1.134644
 H        -1.417240         2.370689        -0.150818
 H        -0.322941         1.239438         2.900509
 H        -1.339816        -0.368667         3.060690
 H        -5.469293         0.867889         1.149422
 H        -4.696111         2.394062         0.352260
 H        -4.130677        -0.380879        -0.788078
 H        -3.288639         1.302945        -0.989091
 H        -2.694413        -0.865916         1.195936
