19
Iteration:  1551
 O         0.059217        -0.236410         0.041662
 C        -0.954882         0.449833         0.749001
 C        -1.285465         1.979468         0.881154
 C        -2.278951         1.253403         1.778881
 C        -1.091479         0.438445         2.334561
 O        -3.567239         1.752643         1.991443
 C        -4.263944         1.624079         0.749429
 C        -3.646419         0.454005        -0.113396
 C        -2.423036         0.137913         0.707312
 H         0.880147         0.352196        -0.028659
 H        -0.652833         2.797509         1.309566
 H        -1.797559         2.277836        -0.074043
 H        -0.181888         0.889800         2.903876
 H        -1.159224        -0.482124         2.858669
 H        -5.285811         1.565618         0.992874
 H        -4.289183         2.589954         0.223747
 H        -4.386164        -0.401945        -0.203887
 H        -3.507680         0.704583        -1.162161
 H        -2.828622        -0.806767         1.240426
