19
Iteration:   255
 O         0.208120        -0.175654         0.169103
 C        -0.905455         0.410534         0.675935
 C        -1.279280         1.978190         0.819929
 C        -2.328171         1.263575         1.691173
 C        -1.212045         0.436565         2.304859
 O        -3.555583         1.589256         2.080595
 C        -4.296712         1.677914         0.845043
 C        -3.635518         0.644580        -0.225998
 C        -2.483376         0.101158         0.615986
 H         0.696283        -0.780734         0.710000
 H        -0.494429         2.539301         1.408132
 H        -1.640679         2.554342        -0.031406
 H        -0.475742         0.929915         2.988331
 H        -1.618113        -0.556172         2.675901
 H        -5.336584         1.465541         1.119142
 H        -4.118336         2.795572         0.582209
 H        -4.434546        -0.147557        -0.368029
 H        -3.341551         1.142356        -1.212252
 H        -2.653631        -0.916546         1.040284
