19
Iteration:   232
 O         0.212796        -0.013075         0.151174
 C        -0.890009         0.391757         0.794279
 C        -1.313712         1.856045         0.695803
 C        -2.353476         1.103197         1.707363
 C        -1.103989         0.250069         2.390761
 O        -3.615418         1.696055         2.083360
 C        -4.306067         1.823176         0.794444
 C        -3.638764         0.640225        -0.196465
 C        -2.529127         0.063458         0.635909
 H         0.961944        -0.210097         0.731702
 H        -0.512491         2.621705         0.996918
 H        -1.703879         2.047034        -0.245877
 H        -0.379237         0.911326         2.958094
 H        -1.179522        -0.770252         2.753569
 H        -5.389195         1.695384         0.955488
 H        -4.042847         2.868490         0.448445
 H        -4.325496        -0.126964        -0.495928
 H        -3.316797         1.218768        -1.073492
 H        -2.718745        -0.922490         0.990065
