19
Iteration:  3444
 O         0.206596        -0.165933         0.159291
 C        -0.937780         0.426392         0.760341
 C        -1.386127         2.041578         0.602844
 C        -2.323254         1.200741         1.705256
 C        -1.175180         0.507649         2.378598
 O        -3.535582         1.653266         2.100059
 C        -4.129261         1.751030         0.741437
 C        -3.692609         0.424691        -0.068989
 C        -2.476639         0.044479         0.745340
 H        -0.110262        -0.782615        -0.576416
 H        -0.661346         2.802772         1.011340
 H        -1.857722         2.363755        -0.360203
 H        -0.452941         1.124711         3.049085
 H        -1.381495        -0.522670         2.769231
 H        -5.220314         1.978075         0.744052
 H        -3.798801         2.760680         0.349965
 H        -4.454255        -0.300235         0.043775
 H        -3.349208         0.735448        -1.103409
 H        -2.659091        -0.922493         1.188470
