19
Iteration:  2720charge 0 multiplicity 1
 O         0.169716        -0.346178         0.243244
 C        -0.882209         0.402666         0.773346
 C        -1.112022         1.969017         0.742442
 C        -2.218682         1.334602         1.604647
 C        -1.171477         0.539089         2.293603
 O        -3.512737         1.807574         1.997801
 C        -4.473949         1.298247         1.039104
 C        -3.667385         0.742823        -0.225773
 C        -2.529715         0.202765         0.621599
 H         0.095366        -0.680080        -0.681126
 H        -0.495550         2.634065         1.302492
 H        -1.338242         2.378775        -0.228718
 H        -0.263551         1.060547         2.832225
 H        -1.554621        -0.266299         2.964887
 H        -5.189347         0.529967         1.433707
 H        -5.227097         2.044170         0.669687
 H        -4.330599         0.018645        -0.751133
 H        -3.555169         1.607593        -0.919016
 H        -2.643297        -0.782263         0.972400
