19
Iteration:  3241charge 0 multiplicity 1
 O        -0.026534        -0.164818         0.034415
 C        -0.919753         0.431352         0.815644
 C        -1.268491         1.981468         0.753196
 C        -2.291741         1.294903         1.729591
 C        -1.065140         0.474015         2.394693
 O        -3.547911         1.776610         2.063810
 C        -4.335421         1.548303         0.761167
 C        -3.587718         0.518603        -0.201328
 C        -2.345306         0.088020         0.764716
 H         0.096581        -1.113010         0.319523
 H        -0.602459         2.758430         0.929612
 H        -1.727383         2.184618        -0.227757
 H        -0.281847         0.976006         3.033668
 H        -1.304011        -0.464224         2.931074
 H        -5.457517         1.335618         1.047287
 H        -4.344470         2.574670         0.261928
 H        -4.298352        -0.332718        -0.509700
 H        -3.219554         0.934798        -1.132120
 H        -2.571759        -0.878640         1.198569
