19
Iteration:  1705charge 0 multiplicity 1
 O         0.060109        -0.294586         0.108464
 C        -0.982213         0.406511         0.743002
 C        -1.250147         1.859508         0.728126
 C        -2.286923         1.219132         1.692564
 C        -1.060504         0.510553         2.378783
 O        -3.546790         1.941263         1.994986
 C        -4.376581         1.327708         0.947301
 C        -3.527495         0.752209        -0.192339
 C        -2.468629         0.141220         0.685627
 H         0.765810         0.378846         0.171503
 H        -0.623294         2.501368         1.254423
 H        -1.679904         2.353889        -0.201165
 H        -0.228147         1.164048         2.937479
 H        -1.362047        -0.461856         2.785658
 H        -5.085212         0.477294         1.241131
 H        -5.185746         2.067878         0.498366
 H        -4.009965        -0.123330        -0.578877
 H        -3.194025         1.329874        -1.013429
 H        -2.845929        -0.838373         1.086518
