19
Iteration:   804
 O         0.181355        -0.204906         0.127820
 C        -0.959831         0.438970         0.738608
 C        -1.346999         1.860521         0.669340
 C        -2.303487         1.193709         1.710779
 C        -1.100065         0.548593         2.336765
 O        -3.586965         1.612443         1.998892
 C        -4.292863         1.722813         0.865418
 C        -3.591323         0.653596        -0.113705
 C        -2.517217        -0.000987         0.763252
 H         0.826145         0.449667        -0.013627
 H        -0.609529         2.528180         1.184705
 H        -1.701467         2.294582        -0.181903
 H        -0.347151         1.260157         2.817110
 H        -1.268827        -0.281451         3.055451
 H        -5.337929         1.476042         1.086309
 H        -4.182261         2.685831         0.324425
 H        -4.311336        -0.135390        -0.392612
 H        -3.271294         1.022416        -1.042051
 H        -2.633535        -1.042103         1.124805
