19
Iteration:  3650charge 0 multiplicity 1
 O         0.205116        -0.225761         0.183333
 C        -0.990691         0.359500         0.807784
 C        -1.255716         1.962477         0.624960
 C        -2.277597         1.220161         1.650152
 C        -1.092223         0.554032         2.370774
 O        -3.552663         1.901208         1.994065
 C        -4.353267         1.438042         0.927737
 C        -3.611758         0.607510        -0.150311
 C        -2.491605         0.100852         0.701935
 H        -0.151951        -0.825717        -0.431704
 H        -0.436971         2.426255         1.111666
 H        -1.645230         2.207283        -0.358264
 H        -0.240582         1.193770         2.748759
 H        -1.225534        -0.327992         3.006707
 H        -5.246012         0.963027         1.308387
 H        -4.893192         2.300723         0.485148
 H        -4.201279        -0.259663        -0.377849
 H        -3.439621         1.301906        -1.151075
 H        -2.742340        -0.893268         1.262206
