19
Iteration:  1559
 O         0.075318        -0.238513         0.028639
 C        -0.953916         0.442061         0.738527
 C        -1.297444         1.967361         0.807967
 C        -2.321774         1.270285         1.780335
 C        -1.081466         0.426107         2.364397
 O        -3.589091         1.734117         2.028462
 C        -4.305530         1.662732         0.716798
 C        -3.620720         0.530398        -0.129203
 C        -2.382265         0.077035         0.774947
 H         0.771631         0.456586        -0.051915
 H        -0.524191         2.626862         1.308816
 H        -1.569658         2.488881        -0.053531
 H        -0.224515         1.024445         2.743069
 H        -1.488541        -0.557269         2.769422
 H        -5.372615         1.303706         0.988581
 H        -4.153914         2.671211         0.223502
 H        -4.318800        -0.266769         0.128158
 H        -3.528496         0.521826        -1.193471
 H        -2.482747        -0.918104         1.212163
