19
Iteration:  3188
 O         0.228068         0.027070         0.118847
 C        -0.906374         0.369451         0.802597
 C        -1.421253         1.801689         0.605417
 C        -2.389359         1.109859         1.709687
 C        -1.114866         0.547053         2.409475
 O        -3.515283         1.713017         2.060345
 C        -4.085492         1.782781         0.753902
 C        -3.732812         0.489682        -0.066916
 C        -2.500540         0.034538         0.707832
 H         0.159751        -0.974039         0.091385
 H        -0.808604         2.584638         0.891970
 H        -1.772123         1.905338        -0.435492
 H        -0.354496         1.245949         2.877612
 H        -1.286340        -0.463192         2.931202
 H        -5.245285         1.799495         0.779584
 H        -3.901112         2.694275         0.319047
 H        -4.473161        -0.305716         0.169401
 H        -3.720858         0.738549        -1.067208
 H        -2.850624        -0.883801         1.149552
