19
Iteration:  4837charge 0 multiplicity 1
 O         0.130551        -0.315073         0.186381
 C        -0.870255         0.463379         0.755178
 C        -1.312948         1.976950         0.632639
 C        -2.261823         1.290074         1.624586
 C        -1.004651         0.605979         2.357552
 O        -3.535454         1.796125         1.987160
 C        -4.392252         1.576111         0.869390
 C        -3.670725         0.525505        -0.019671
 C        -2.461310         0.065521         0.733845
 H        -0.096904        -0.703500        -0.734403
 H        -0.666126         2.737342         1.073159
 H        -1.850203         2.172430        -0.316590
 H        -0.382011         1.366190         2.907462
 H        -1.126856        -0.349674         2.951482
 H        -5.320100         1.111515         1.211920
 H        -4.649635         2.455282         0.330989
 H        -4.246059        -0.519837        -0.192069
 H        -3.532437         0.769621        -1.041686
 H        -2.620355        -0.976760         1.230827
