19
Iteration:  3095
 O         0.086149        -0.300766         0.082251
 C        -0.966275         0.410315         0.765914
 C        -1.201274         1.962354         0.700597
 C        -2.301946         1.329897         1.678394
 C        -1.121377         0.601089         2.355439
 O        -3.508096         1.917860         2.036407
 C        -4.437108         1.276497         0.868422
 C        -3.534977         0.720490        -0.174942
 C        -2.475288         0.087148         0.737829
 H         0.137751        -1.219659         0.311005
 H        -0.278110         2.436262         1.161356
 H        -1.485719         2.389759        -0.265169
 H        -0.334644         1.111679         2.828418
 H        -1.423796        -0.318381         2.834143
 H        -4.863565         0.445563         1.302542
 H        -5.424997         1.779464         0.617778
 H        -4.136590        -0.000482        -0.765292
 H        -2.913232         1.448153        -0.850689
 H        -2.731251        -0.790161         1.378715
