19
Iteration:   355
 O         0.208319        -0.310737         0.153794
 C        -0.881600         0.416555         0.793700
 C        -1.181429         1.961292         0.866770
 C        -2.242242         1.270220         1.672680
 C        -1.190845         0.352413         2.364368
 O        -3.483785         1.882039         1.972679
 C        -4.464831         1.361959         0.913912
 C        -3.771245         0.684074        -0.256677
 C        -2.479184         0.256864         0.594317
 H         0.778739         0.404053        -0.034506
 H        -0.550627         2.606357         1.429175
 H        -1.507071         2.458160        -0.151287
 H        -0.386274         0.697985         2.986837
 H        -1.551245        -0.564782         2.949752
 H        -5.170200         0.757670         1.509897
 H        -4.992483         2.292122         0.429406
 H        -4.168265        -0.312520        -0.750451
 H        -3.658202         1.476578        -1.063174
 H        -2.510656        -0.800698         0.915562
