19
Iteration:   226charge 0 multiplicity 1
 O         0.215643        -0.004140         0.119102
 C        -0.883584         0.410494         0.804804
 C        -1.310555         1.789741         0.726509
 C        -2.413480         1.105510         1.767948
 C        -1.075677         0.296943         2.375632
 O        -3.605661         1.720565         2.064159
 C        -4.295110         1.827205         0.826616
 C        -3.637229         0.676818        -0.223218
 C        -2.499127        -0.017638         0.647144
 H         1.088818        -0.146187         0.674586
 H        -0.642268         2.540911         1.027388
 H        -1.772053         2.231867        -0.291093
 H        -0.496781         0.911600         3.015503
 H        -1.368651        -0.759111         2.724756
 H        -5.383040         1.887148         0.988221
 H        -4.085108         2.792050         0.359353
 H        -4.475761        -0.065531        -0.592172
 H        -3.193888         1.010496        -1.218326
 H        -2.720465        -1.138257         0.913233
