19
Iteration:  4429charge 0 multiplicity 1
 O         0.082951        -0.178896         0.094966
 C        -0.949230         0.410470         0.813972
 C        -1.287436         1.947410         0.719998
 C        -2.277977         1.272238         1.655741
 C        -1.049389         0.619248         2.299993
 O        -3.521097         1.783954         2.004808
 C        -4.306515         1.572033         0.824007
 C        -3.731459         0.423768        -0.084550
 C        -2.447834         0.079489         0.734893
 H         0.623101        -0.936464         0.461285
 H        -0.622503         2.777367         1.215593
 H        -1.532654         2.327877        -0.340100
 H        -0.268389         1.204283         2.878282
 H        -1.181679        -0.378226         2.904712
 H        -5.402528         1.397699         1.165958
 H        -4.190594         2.473855         0.108622
 H        -4.348100        -0.479562        -0.037613
 H        -3.603247         0.764418        -1.032218
 H        -2.532295        -0.925713         1.141971
