19
Iteration:  1028charge 0 multiplicity 1
 O         0.060712        -0.295344        -0.027664
 C        -0.950947         0.402070         0.796642
 C        -1.209981         1.935983         0.733910
 C        -2.342068         1.314578         1.685611
 C        -1.217975         0.525644         2.435824
 O        -3.551552         1.904192         1.990006
 C        -4.374361         1.337870         0.960407
 C        -3.508659         0.678144        -0.140460
 C        -2.380955         0.100776         0.662223
 H         0.867495        -0.131708         0.489541
 H        -0.347482         2.531966         1.099183
 H        -1.435423         2.201140        -0.301249
 H        -0.377456         1.117885         3.087643
 H        -1.622885        -0.415179         2.932785
 H        -5.124805         0.583206         1.364100
 H        -4.901820         2.121716         0.380990
 H        -4.010183        -0.144278        -0.704315
 H        -3.337897         1.533021        -0.756957
 H        -2.705278        -0.879787         1.029325
