19
Iteration:  1260
 O        -0.014654        -0.307037         0.005718
 C        -0.912504         0.424063         0.873787
 C        -1.195176         1.979124         0.743311
 C        -2.296289         1.313041         1.730149
 C        -1.168945         0.569711         2.398105
 O        -3.527366         1.676387         1.952848
 C        -4.379490         1.527635         0.856358
 C        -3.571560         0.637696        -0.129001
 C        -2.389260         0.096014         0.695587
 H         0.851602         0.236494        -0.134355
 H        -0.593660         2.658209         1.323108
 H        -1.529978         2.436403        -0.188344
 H        -0.470948         1.182884         3.166027
 H        -1.322318        -0.446660         2.817601
 H        -5.124185         0.829971         1.216362
 H        -4.746052         2.451179         0.322958
 H        -4.126727        -0.272915        -0.305607
 H        -3.290754         1.094041        -1.047936
 H        -2.684961        -0.855442         1.104361
