19
Iteration:  2775
 O         0.167916        -0.276489         0.166382
 C        -0.902330         0.346171         0.771538
 C        -1.221620         1.927606         0.703234
 C        -2.273396         1.312601         1.637710
 C        -1.175197         0.457581         2.390057
 O        -3.506698         1.881856         1.970340
 C        -4.457436         1.370494         0.978307
 C        -3.561984         0.706764        -0.196817
 C        -2.479835         0.133378         0.695651
 H         0.230651         0.271313        -0.595431
 H        -0.290969         2.367098         1.136495
 H        -1.530598         2.270754        -0.294451
 H        -0.477270         1.222215         2.875408
 H        -1.429796        -0.573457         2.826964
 H        -5.147185         0.663921         1.564103
 H        -5.188490         2.205051         0.640156
 H        -4.334550         0.009352        -0.642224
 H        -3.310872         1.421404        -0.995878
 H        -2.895366        -0.802166         1.178663
