19
Iteration:  2323charge 0 multiplicity 1
 O         0.136249        -0.321614         0.216440
 C        -0.945755         0.393327         0.737814
 C        -1.247593         2.008847         0.745085
 C        -2.303669         1.278083         1.671361
 C        -1.045016         0.524337         2.341323
 O        -3.554452         1.704765         2.057209
 C        -4.444675         1.562577         0.840615
 C        -3.591092         0.702649        -0.176092
 C        -2.464635         0.090712         0.668412
 H        -0.116875        -0.513855        -0.723576
 H        -0.512189         2.614218         1.228648
 H        -1.526487         2.276748        -0.251124
 H        -0.224292         1.137373         2.790656
 H        -1.006596        -0.363586         2.877634
 H        -5.248068         0.992998         1.332272
 H        -4.843902         2.606819         0.616815
 H        -4.131013        -0.209662        -0.437826
 H        -3.217708         1.392239        -1.027492
 H        -2.636546        -0.996065         0.915540
