19
Iteration:   458charge 0 multiplicity 1
 O         0.115373        -0.214187         0.069069
 C        -0.910521         0.401736         0.838773
 C        -1.201761         2.002179         0.813386
 C        -2.262478         1.304267         1.693308
 C        -1.170271         0.465152         2.434088
 O        -3.526906         1.745806         1.980770
 C        -4.400401         1.469623         0.856806
 C        -3.588621         0.561267        -0.204471
 C        -2.439972         0.191801         0.662882
 H        -0.274869        -0.451070        -0.804898
 H        -0.531374         2.605743         1.446760
 H        -1.159999         2.429957        -0.141410
 H        -0.454353         0.983014         3.072989
 H        -1.662879        -0.391813         2.802775
 H        -5.195433         0.832021         1.262236
 H        -4.746844         2.381736         0.486789
 H        -4.273878        -0.224879        -0.475494
 H        -3.343013         1.116657        -1.133362
 H        -2.742095        -0.740536         1.185065
