19
Iteration:  3994
 O         0.060160        -0.131757        -0.022377
 C        -0.922496         0.381585         0.836064
 C        -1.181568         1.889475         0.693034
 C        -2.304951         1.309008         1.690569
 C        -1.012964         0.653107         2.506869
 O        -3.540727         1.899026         1.926598
 C        -4.415589         1.428650         0.802213
 C        -3.611753         0.462646        -0.058556
 C        -2.456837         0.025145         0.811789
 H        -0.101595        -0.999901        -0.317206
 H        -0.531020         2.672573         1.078267
 H        -1.453185         2.248320        -0.340581
 H        -0.260877         1.284934         2.969279
 H        -1.234797        -0.276574         2.993724
 H        -5.384843         0.888602         1.256801
 H        -4.762628         2.278497         0.153793
 H        -4.307906        -0.387066        -0.442039
 H        -3.353444         0.950309        -1.012490
 H        -2.707357        -0.923211         1.442548
