19
Iteration:  4310charge 0 multiplicity 1
 O         0.070296        -0.208252         0.106394
 C        -0.963762         0.482883         0.727264
 C        -1.210256         1.961988         0.681871
 C        -2.255316         1.249226         1.667918
 C        -1.114625         0.669584         2.436621
 O        -3.498692         1.768241         1.984013
 C        -4.321277         1.452724         0.801530
 C        -3.655990         0.505395        -0.087954
 C        -2.442765         0.063724         0.767580
 H        -0.337741        -1.042078        -0.190021
 H        -0.464746         2.694807         1.060278
 H        -1.721182         2.384468        -0.223411
 H        -0.427155         1.353075         2.979898
 H        -1.177383        -0.304155         3.022992
 H        -5.299127         1.141857         1.285103
 H        -4.492530         2.381159         0.328288
 H        -4.367506        -0.411010        -0.231297
 H        -3.310527         0.917165        -0.985479
 H        -2.638741        -0.899676         1.202056
