19
Iteration:  2968charge 0 multiplicity 1
 O         0.015178        -0.202229         0.083592
 C        -0.985204         0.454698         0.806129
 C        -1.241580         1.946000         0.631385
 C        -2.265045         1.320403         1.779899
 C        -1.110763         0.578769         2.396393
 O        -3.526455         1.709156         2.025726
 C        -4.312546         1.502314         0.888636
 C        -3.535160         0.587874        -0.215977
 C        -2.475810         0.040397         0.688315
 H         0.079338        -1.150869         0.290581
 H        -0.480777         2.657051         1.043325
 H        -1.463265         2.415744        -0.311671
 H        -0.310887         1.279232         2.911691
 H        -1.332039        -0.272696         3.029567
 H        -5.102790         0.917255         1.198725
 H        -4.464189         2.494263         0.491776
 H        -4.266394        -0.095746        -0.546135
 H        -3.269195         1.194035        -1.093943
 H        -2.762238        -0.915770         1.173266
