19
Iteration:  1442charge 0 multiplicity 1
 O         0.073553        -0.263310         0.043717
 C        -0.853385         0.403829         0.839207
 C        -1.202050         1.979813         0.748223
 C        -2.286063         1.281964         1.642749
 C        -1.142595         0.444565         2.387786
 O        -3.521067         1.813768         2.053063
 C        -4.425143         1.480838         0.822032
 C        -3.618667         0.564492        -0.208318
 C        -2.485390         0.149792         0.730385
 H         0.944293         0.062260         0.021992
 H        -0.515570         2.829791         1.162258
 H        -1.527867         2.414620        -0.218725
 H        -0.554218         1.158517         3.025691
 H        -1.472384        -0.422435         2.931524
 H        -5.115141         0.838720         1.314097
 H        -4.801953         2.439286         0.607062
 H        -4.431317        -0.197658        -0.523127
 H        -3.233056         1.029879        -1.137552
 H        -2.638460        -0.830006         1.354506
