19
Iteration:  1306
 O         0.074020        -0.219995         0.100542
 C        -0.913243         0.433180         0.737060
 C        -1.303381         1.963129         0.755828
 C        -2.298854         1.219227         1.635525
 C        -1.162047         0.452024         2.336737
 O        -3.481709         1.855222         1.945347
 C        -4.355125         1.424196         0.912404
 C        -3.568803         0.689130        -0.133417
 C        -2.458669         0.055834         0.752403
 H         0.944567        -0.076455         0.570127
 H        -0.628248         2.646431         1.185325
 H        -1.742365         2.361309        -0.207272
 H        -0.398864         0.986297         2.884811
 H        -1.500115        -0.497052         2.919837
 H        -4.991345         0.681882         1.219588
 H        -4.875910         2.304860         0.509506
 H        -4.176328        -0.054646        -0.443982
 H        -3.203421         1.275356        -0.979083
 H        -2.847760        -0.833468         1.275867
