19
Iteration:  1066charge 0 multiplicity 1
 O         0.080577        -0.284664         0.171777
 C        -0.905911         0.395033         0.835682
 C        -1.230215         1.981844         0.773488
 C        -2.293840         1.288201         1.631063
 C        -1.021034         0.483262         2.309039
 O        -3.572237         1.768130         1.955762
 C        -4.426482         1.487661         0.877460
 C        -3.672209         0.608621        -0.090078
 C        -2.463603         0.095625         0.622911
 H         0.948359         0.268272         0.186264
 H        -0.557793         2.713103         1.297520
 H        -1.449312         2.445654        -0.253702
 H        -0.242739         1.043003         2.760368
 H        -1.245682        -0.496930         2.722299
 H        -5.379295         1.322205         1.344331
 H        -4.515194         2.475149         0.381404
 H        -4.237260        -0.211807        -0.560450
 H        -3.272192         1.316973        -0.918489
 H        -2.693817        -0.905787         1.119721
