19
Iteration:  4160charge 0 multiplicity 1
 O         0.068589        -0.187906         0.058107
 C        -0.922443         0.414099         0.765442
 C        -1.261665         1.866357         0.654085
 C        -2.258126         1.343805         1.692608
 C        -1.148965         0.584740         2.487436
 O        -3.485099         1.968611         1.881445
 C        -4.423013         1.320906         0.942701
 C        -3.556774         0.513283        -0.085400
 C        -2.369949         0.101842         0.768885
 H        -0.307664        -1.062480        -0.127210
 H        -0.562141         2.673037         0.865165
 H        -1.642267         2.116631        -0.332096
 H        -0.387263         1.252279         2.902677
 H        -1.408402        -0.317077         2.966500
 H        -5.291843         0.814003         1.474381
 H        -4.835426         2.259432         0.492131
 H        -4.053604        -0.446848        -0.602999
 H        -3.586569         1.248740        -0.928598
 H        -2.624845        -0.959884         1.181321
