19
Iteration:  3571
 O         0.049802        -0.316125         0.123782
 C        -0.972123         0.412562         0.777849
 C        -1.142358         1.907825         0.644032
 C        -2.245226         1.376746         1.647527
 C        -1.058077         0.538839         2.370317
 O        -3.577483         1.891638         1.925628
 C        -4.446957         1.228701         1.003880
 C        -3.547430         0.716554        -0.199378
 C        -2.489067         0.195698         0.733686
 H         0.485792        -0.683809         0.853524
 H        -0.380758         2.543341         1.126585
 H        -1.471528         2.391523        -0.236669
 H        -0.384043         1.091625         2.964512
 H        -1.351771        -0.424684         2.723148
 H        -4.862218         0.370648         1.512820
 H        -5.137560         1.950412         0.668481
 H        -4.187323         0.064702        -0.833753
 H        -3.363349         1.532947        -0.935885
 H        -2.755642        -0.765043         1.258019
