19
Iteration:  2317charge 0 multiplicity 1
 O         0.158448        -0.309721         0.189773
 C        -0.912086         0.406976         0.739770
 C        -1.243012         1.946612         0.739606
 C        -2.313690         1.242408         1.673985
 C        -1.094146         0.571080         2.294227
 O        -3.587293         1.709455         2.067364
 C        -4.431443         1.577055         0.898068
 C        -3.585629         0.716747        -0.185863
 C        -2.447916         0.074849         0.685272
 H        -0.030764        -0.554661        -0.687159
 H        -0.403224         2.533593         1.238439
 H        -1.612340         2.426707        -0.221530
 H        -0.224769         1.162772         2.783254
 H        -1.123266        -0.429876         2.933311
 H        -5.372764         1.065076         1.217704
 H        -4.675160         2.558676         0.500512
 H        -4.189384        -0.119132        -0.570489
 H        -3.143473         1.193209        -1.003380
 H        -2.692531        -0.866790         1.195791
