19
Iteration:  3305charge 0 multiplicity 1
 O         0.223707        -0.256833         0.236998
 C        -0.879784         0.418587         0.795788
 C        -1.146898         1.917278         0.628397
 C        -2.301809         1.282072         1.593175
 C        -1.235283         0.430697         2.310617
 O        -3.508112         1.946533         1.938095
 C        -4.440303         1.272324         1.078403
 C        -3.676281         0.782851        -0.176835
 C        -2.439665         0.190220         0.619612
 H         0.171367        -1.190147         0.234516
 H        -0.375491         2.654089         0.954293
 H        -1.533951         2.147534        -0.413548
 H        -0.640628         1.055732         2.986136
 H        -1.492824        -0.518042         2.673743
 H        -4.926967         0.402922         1.461732
 H        -5.372972         1.911889         0.986529
 H        -4.253772        -0.115173        -0.572888
 H        -3.586548         1.639675        -0.887357
 H        -2.651178        -0.741541         1.216891
