19
Iteration:   102
 O         0.270044        -0.175932         0.138599
 C        -0.925526         0.326906         0.776520
 C        -1.164169         1.879180         0.797671
 C        -2.224650         1.222362         1.679928
 C        -1.253674         0.277758         2.408601
 O        -3.546403         1.887573         1.973498
 C        -4.475886         1.414520         0.917704
 C        -3.668204         0.847828        -0.239587
 C        -2.513413         0.121948         0.576686
 H         0.991406         0.478296         0.506281
 H        -0.359306         2.454647         1.358160
 H        -1.466544         2.331789        -0.096004
 H        -0.483521         0.683128         3.133061
 H        -1.613828        -0.586387         2.845770
 H        -5.130692         0.637858         1.290346
 H        -5.083773         2.292474         0.540038
 H        -4.315419         0.196851        -0.861869
 H        -3.213480         1.667116        -0.894327
 H        -2.858366        -0.831872         1.003899
