19
Iteration:  3342
 O         0.139275        -0.250068         0.210089
 C        -0.888480         0.387849         0.763126
 C        -1.066590         1.963395         0.761436
 C        -2.294669         1.276342         1.601618
 C        -1.203563         0.489430         2.253630
 O        -3.505378         1.897842         1.878019
 C        -4.477440         1.309289         1.058879
 C        -3.737513         0.710878        -0.150406
 C        -2.425090         0.182115         0.600388
 H         0.315161        -0.938068         0.832019
 H        -0.334584         2.364611         1.396023
 H        -1.282355         2.446906        -0.155482
 H        -0.486966         1.164525         2.734245
 H        -1.369041        -0.546874         2.753417
 H        -4.673084         0.458447         1.726985
 H        -5.238164         2.003642         0.797728
 H        -4.242402        -0.085061        -0.697013
 H        -3.530046         1.424243        -0.910813
 H        -2.842557        -0.681014         1.072813
