19
Iteration:  2249charge 0 multiplicity 1
 O         0.218166        -0.248586         0.152826
 C        -0.878836         0.500203         0.693649
 C        -1.277577         1.967499         0.814813
 C        -2.325758         1.149880         1.721297
 C        -1.123242         0.475832         2.253251
 O        -3.565610         1.725621         2.078872
 C        -4.274092         1.727253         0.718110
 C        -3.752760         0.449861        -0.137124
 C        -2.491874         0.034808         0.772839
 H         0.293974         0.287737        -0.698280
 H        -0.559415         2.624432         1.421388
 H        -1.774836         2.536239        -0.052406
 H        -0.153563         0.871262         2.900801
 H        -1.356445        -0.418742         2.854877
 H        -5.357866         1.945380         0.934980
 H        -3.916107         2.733177         0.382350
 H        -4.602363        -0.127067        -0.177237
 H        -3.480003         0.859350        -1.148945
 H        -2.706640        -0.823850         1.470824
