19
Iteration:  4834charge 0 multiplicity 1
 O         0.153874        -0.328026         0.186857
 C        -0.867945         0.466907         0.746240
 C        -1.280268         1.979942         0.650040
 C        -2.283007         1.302949         1.616299
 C        -0.991971         0.602510         2.354169
 O        -3.552150         1.783769         1.977241
 C        -4.393281         1.583672         0.893259
 C        -3.687479         0.497004        -0.039062
 C        -2.474179         0.078741         0.769247
 H        -0.091964        -0.556082        -0.711868
 H        -0.622199         2.768087         0.943602
 H        -1.853195         2.160021        -0.279934
 H        -0.342253         1.234938         2.929366
 H        -1.083037        -0.276790         2.911520
 H        -5.381161         1.150444         1.241584
 H        -4.670683         2.538188         0.209435
 H        -4.242971        -0.441923        -0.158572
 H        -3.637630         0.781641        -1.112298
 H        -2.621173        -0.991957         1.161143
