19
Iteration:   931charge 0 multiplicity 1
 O         0.222143        -0.239290         0.107603
 C        -0.991259         0.288114         0.781609
 C        -1.267248         1.856264         0.749554
 C        -2.354880         1.304069         1.725297
 C        -1.102523         0.533422         2.287979
 O        -3.566007         1.820660         2.096231
 C        -4.462515         1.480972         0.945939
 C        -3.566414         0.713451        -0.254598
 C        -2.453248         0.060812         0.628479
 H         1.044928         0.244530         0.374291
 H        -0.311177         2.444655         1.082421
 H        -1.466088         2.262224        -0.285146
 H        -0.315512         1.277799         2.612350
 H        -1.307969        -0.283575         2.882049
 H        -5.328433         0.877232         1.314774
 H        -4.882937         2.413476         0.534468
 H        -4.335823        -0.067520        -0.602923
 H        -3.208343         1.458909        -0.954904
 H        -2.677564        -0.982911         1.046499
