19
Iteration:  4122
 O         0.194247        -0.176127         0.054095
 C        -0.946628         0.379066         0.728790
 C        -1.249435         1.924365         0.686710
 C        -2.239070         1.358814         1.699530
 C        -1.059140         0.601577         2.299739
 O        -3.532406         1.820394         1.947540
 C        -4.430652         1.524104         0.839315
 C        -3.708851         0.431331        -0.043521
 C        -2.523185         0.067992         0.830613
 H         0.602399        -0.949484         0.595675
 H        -0.566094         2.501013         1.303618
 H        -1.680855         2.266428        -0.256275
 H        -0.286981         1.187727         2.793259
 H        -1.229805        -0.318131         2.942242
 H        -5.416939         1.314372         1.236636
 H        -4.512826         2.349918         0.137055
 H        -4.217031        -0.475053        -0.215232
 H        -3.341968         0.957851        -0.916605
 H        -2.719455        -0.785727         1.484924
