19
Iteration:  4360
 O         0.176517        -0.161487         0.145584
 C        -0.968240         0.464589         0.731634
 C        -1.404004         1.917445         0.562002
 C        -2.345474         1.165707         1.772962
 C        -1.003988         0.660943         2.351628
 O        -3.530613         1.710701         2.042799
 C        -4.253741         1.683234         0.750688
 C        -3.634625         0.459603        -0.105266
 C        -2.470965        -0.023933         0.853901
 H        -0.186561        -0.980666        -0.348070
 H        -0.836080         2.743090         1.011080
 H        -1.859777         2.342076        -0.367720
 H        -0.405714         1.341045         2.931891
 H        -1.040000        -0.277824         2.925880
 H        -5.218549         1.478275         1.117964
 H        -4.117906         2.762887         0.353939
 H        -4.330244        -0.290936        -0.298134
 H        -3.177910         0.892304        -1.079532
 H        -2.848548        -0.933221         1.366822
