19
Iteration:   154charge 0 multiplicity 1
 O         0.029245        -0.341590         0.046568
 C        -0.928141         0.457436         0.744139
 C        -1.223823         2.007646         0.968140
 C        -2.264157         1.170220         1.796612
 C        -1.138840         0.446150         2.405772
 O        -3.655503         1.592669         2.016887
 C        -4.339059         1.649427         0.760557
 C        -3.511000         0.684047        -0.299845
 C        -2.414170         0.191151         0.696872
 H         0.724472         0.323934        -0.328868
 H        -0.438550         2.649362         1.478897
 H        -1.645114         2.555268         0.209519
 H        -0.434609         1.092141         3.033326
 H        -1.364860        -0.509187         2.820342
 H        -5.411838         1.380995         0.958886
 H        -4.382789         2.713908         0.374056
 H        -3.981437        -0.180749        -0.645904
 H        -3.263381         1.251324        -1.175731
 H        -2.623245        -0.786030         1.029214
