19
Iteration:  2548charge 0 multiplicity 1
 O         0.128668        -0.143446         0.140212
 C        -0.917836         0.438462         0.671417
 C        -1.253489         1.954166         0.723119
 C        -2.278196         1.214804         1.692315
 C        -1.201355         0.536670         2.400594
 O        -3.532253         1.685715         2.095804
 C        -4.279880         1.719050         0.820348
 C        -3.662400         0.477822        -0.146309
 C        -2.471486         0.029107         0.707347
 H        -0.128615        -0.509505        -0.719774
 H        -0.471509         2.512894         1.310832
 H        -1.442776         2.331408        -0.376863
 H        -0.437995         1.039422         2.940278
 H        -1.399351        -0.467151         2.846584
 H        -5.384729         1.479961         1.111347
 H        -4.023373         2.679292         0.441835
 H        -4.359198        -0.391078        -0.320328
 H        -3.314671         0.990579        -1.083261
 H        -2.468884        -0.984899         1.287897
