19
Iteration:  3865charge 0 multiplicity 1
 O         0.084083        -0.210367         0.065610
 C        -0.843875         0.471721         0.808542
 C        -1.172456         1.935114         0.652797
 C        -2.312285         1.249598         1.679243
 C        -1.127391         0.590480         2.452892
 O        -3.476729         1.943325         1.876724
 C        -4.442737         1.354594         0.953549
 C        -3.648573         0.571954        -0.153394
 C        -2.471312         0.059060         0.738460
 H         0.075399        -1.210816         0.082225
 H        -0.488654         2.723591         1.030848
 H        -1.645654         2.221149        -0.351653
 H        -0.445062         1.160962         3.183693
 H        -1.181618        -0.393739         3.045715
 H        -5.049634         0.605756         1.547137
 H        -5.211686         2.129607         0.665031
 H        -4.120414        -0.322804        -0.559806
 H        -3.289944         1.188239        -0.922627
 H        -2.795740        -0.808693         1.242701
