19
Iteration:  4819charge 0 multiplicity 1
 O         0.200766        -0.307120         0.198650
 C        -0.874237         0.438334         0.789566
 C        -1.208406         1.953783         0.579661
 C        -2.276951         1.326045         1.722293
 C        -1.006766         0.580758         2.284065
 O        -3.575563         1.800089         2.047847
 C        -4.451439         1.556839         0.825908
 C        -3.815878         0.399163        -0.083834
 C        -2.450867         0.115667         0.767414
 H         0.312112        -0.020584        -0.786503
 H        -0.392759         2.619867         1.065431
 H        -1.564771         2.275899        -0.388468
 H        -0.167691         1.204090         2.646868
 H        -1.302731        -0.384901         2.771930
 H        -5.452172         1.440959         1.249332
 H        -4.385920         2.576529         0.327320
 H        -4.477235        -0.445810        -0.171944
 H        -3.598541         0.842653        -1.095968
 H        -2.621187        -0.651286         1.460652
