19
Iteration:  3534
 O         0.021494        -0.383009         0.097742
 C        -0.920156         0.455208         0.747227
 C        -1.271739         1.966720         0.718799
 C        -2.258856         1.306511         1.644671
 C        -1.086992         0.635544         2.427309
 O        -3.510001         1.797866         2.013173
 C        -4.359725         1.418254         0.911820
 C        -3.652163         0.613152        -0.254667
 C        -2.431217         0.128344         0.724462
 H         0.824252        -0.252396         0.620867
 H        -0.483973         2.519898         1.264884
 H        -1.683267         2.342977        -0.280818
 H        -0.383367         1.299282         2.946792
 H        -1.226178        -0.355199         2.888190
 H        -5.204766         0.784140         1.267796
 H        -4.896076         2.356286         0.568215
 H        -4.121352        -0.289927        -0.706332
 H        -3.216949         1.222664        -1.032039
 H        -2.689920        -0.755247         1.281553
