19
Iteration:  2176
 O         0.145775        -0.175651         0.221965
 C        -0.996258         0.369342         0.727199
 C        -1.309023         1.883702         0.716933
 C        -2.261555         1.235052         1.711169
 C        -1.015714         0.466325         2.268351
 O        -3.600640         1.726935         2.083765
 C        -4.348085         1.639172         0.807133
 C        -3.580500         0.676600        -0.147117
 C        -2.493849         0.047529         0.752379
 H         0.157361        -0.007072        -0.694858
 H        -0.464653         2.471073         1.111564
 H        -1.718801         2.291185        -0.209336
 H        -0.371370         1.116415         2.765669
 H        -1.172322        -0.562114         2.830128
 H        -5.359000         1.362649         1.131075
 H        -4.476932         2.629890         0.379314
 H        -4.275914        -0.214978        -0.628473
 H        -2.980551         1.035091        -1.055395
 H        -2.665809        -0.960421         1.092951
