19
Iteration:   554
 O         0.105580        -0.224931         0.097767
 C        -0.891962         0.455857         0.808807
 C        -1.335872         1.922952         0.785423
 C        -2.317174         1.203865         1.678339
 C        -1.120336         0.542209         2.355847
 O        -3.563585         1.603669         2.108094
 C        -4.194999         1.690628         0.734159
 C        -3.683471         0.590672        -0.151185
 C        -2.478625         0.060972         0.694806
 H         0.637317         0.459899        -0.425331
 H        -0.612182         2.701292         1.175090
 H        -1.661497         2.261313        -0.139278
 H        -0.505276         1.298663         2.894588
 H        -1.338264        -0.321933         2.891952
 H        -5.241565         1.426647         0.965257
 H        -4.063661         2.695947         0.320744
 H        -4.349090        -0.313219        -0.266405
 H        -3.319997         0.792195        -1.145045
 H        -2.615936        -0.880847         1.200386
