19
Iteration:  2637
 O         0.129201        -0.246532         0.085749
 C        -0.914476         0.390490         0.809251
 C        -1.213671         1.949350         0.710718
 C        -2.282232         1.281474         1.661804
 C        -1.162108         0.466921         2.420138
 O        -3.549605         1.801826         2.027331
 C        -4.347633         1.565172         0.838275
 C        -3.644646         0.566235        -0.070849
 C        -2.431972         0.082629         0.705683
 H         0.417267         0.420888        -0.601840
 H        -0.480252         2.730204         1.115959
 H        -1.687435         2.184482        -0.316537
 H        -0.480935         0.975704         2.960747
 H        -1.463715        -0.588465         2.649187
 H        -5.380454         1.196449         1.170753
 H        -4.425621         2.453863         0.195630
 H        -4.302055        -0.265244        -0.467587
 H        -3.425426         1.124499        -0.965723
 H        -2.744621        -0.950194         1.192402
