19
Iteration:  3518charge 0 multiplicity 1
 O         0.013163        -0.262229         0.152763
 C        -0.989455         0.424349         0.804061
 C        -1.204371         1.933532         0.633555
 C        -2.265748         1.279646         1.691334
 C        -1.170176         0.564308         2.366927
 O        -3.475196         1.747428         2.033306
 C        -4.363228         1.525547         0.856976
 C        -3.540541         0.577599        -0.133430
 C        -2.431621         0.066400         0.662391
 H         0.815539         0.208797         0.172966
 H        -0.515001         2.712441         0.938387
 H        -1.644487         2.276580        -0.258528
 H        -0.326761         1.208450         2.806085
 H        -1.503562        -0.210679         3.087940
 H        -5.276330         0.958534         1.239918
 H        -4.758082         2.454037         0.365048
 H        -4.319768        -0.150196        -0.163522
 H        -3.420122         1.056254        -1.182000
 H        -2.740437        -0.942889         1.070355
