19
Iteration:  2510charge 0 multiplicity 1
 O         0.098497        -0.186345         0.118651
 C        -0.952583         0.442310         0.782178
 C        -1.235837         1.913482         0.761233
 C        -2.252512         1.262283         1.754628
 C        -1.033201         0.437927         2.367926
 O        -3.539314         1.806401         2.034871
 C        -4.417122         1.591724         0.823750
 C        -3.621596         0.530173        -0.189501
 C        -2.429894         0.114322         0.684482
 H        -0.118688        -0.730951        -0.610772
 H        -0.796260         2.715925         1.335794
 H        -1.740714         2.200175        -0.118454
 H        -0.181723         0.996352         2.986236
 H        -1.173979        -0.560215         2.890117
 H        -5.375351         1.222885         1.137089
 H        -4.602751         2.564011         0.284300
 H        -4.292347        -0.292083        -0.450982
 H        -3.207804         1.066822        -1.174747
 H        -2.803015        -0.808948         1.088786
