19
Iteration:  1181charge 0 multiplicity 1
 O         0.107236        -0.191440         0.081031
 C        -0.916945         0.531010         0.675658
 C        -1.288110         1.953557         0.682474
 C        -2.358911         1.142788         1.721743
 C        -1.219180         0.507077         2.402545
 O        -3.518762         1.712402         2.111652
 C        -4.178499         1.646388         0.812519
 C        -3.661470         0.546248        -0.156040
 C        -2.442788         0.024780         0.727396
 H         1.007929         0.037149         0.523950
 H        -0.469933         2.620045         1.038883
 H        -1.607450         2.303164        -0.259786
 H        -0.593387         1.299094         3.051568
 H        -1.548049        -0.473070         2.684763
 H        -5.294335         1.357112         0.897206
 H        -4.254310         2.593628         0.278450
 H        -4.529212        -0.213876        -0.080363
 H        -3.400621         0.633636        -1.174191
 H        -2.600655        -0.920489         1.196130
