19
Iteration:  4025
 O         0.116461        -0.101174         0.003912
 C        -0.955088         0.391096         0.765360
 C        -1.340972         1.957265         0.667996
 C        -2.260353         1.326265         1.652619
 C        -1.134712         0.614552         2.496774
 O        -3.485124         1.865899         1.956389
 C        -4.279185         1.526512         0.818718
 C        -3.621899         0.341160        -0.023957
 C        -2.421946        -0.002689         0.775550
 H         0.065808        -1.125103        -0.120755
 H        -0.744484         2.709891         1.155984
 H        -1.778551         2.270510        -0.306195
 H        -0.355917         1.003532         3.077426
 H        -1.522855        -0.297432         2.912980
 H        -5.352089         1.455887         1.219480
 H        -4.376301         2.423286         0.143504
 H        -4.433779        -0.555320        -0.010589
 H        -3.442422         0.783247        -1.056424
 H        -2.646430        -0.945763         1.412777
