19
Iteration:  1172charge 0 multiplicity 1
 O         0.004962        -0.164548         0.103110
 C        -0.950414         0.524152         0.702276
 C        -1.227059         1.966198         0.668111
 C        -2.308227         1.184339         1.699225
 C        -1.186242         0.466648         2.391055
 O        -3.561266         1.711525         2.066935
 C        -4.230199         1.683481         0.733570
 C        -3.599515         0.504258        -0.061827
 C        -2.397238         0.005026         0.671852
 H         0.882569         0.097815         0.553377
 H        -0.611014         2.637559         1.280701
 H        -1.739139         2.388430        -0.133588
 H        -0.404949         0.934524         3.099387
 H        -1.325670        -0.457479         2.878682
 H        -5.201886         1.370103         1.103786
 H        -4.212496         2.740438         0.424467
 H        -4.276499        -0.381289         0.037123
 H        -3.528509         0.681222        -1.087258
 H        -2.564400        -0.976403         1.098485
