19
Iteration:  4990
 O         0.054663        -0.249506         0.209051
 C        -0.966899         0.414214         0.756253
 C        -1.267388         1.879129         0.576841
 C        -2.238681         1.320010         1.660854
 C        -1.083838         0.614954         2.331505
 O        -3.442869         1.836004         2.010916
 C        -4.457785         1.426075         0.981362
 C        -3.542701         0.636770        -0.155362
 C        -2.446699         0.049631         0.736658
 H        -0.104404        -0.689172        -0.636185
 H        -0.617665         2.652201         0.962378
 H        -1.554419         2.292186        -0.350323
 H        -0.339603         1.157967         2.849068
 H        -1.444085        -0.263218         2.873883
 H        -5.321154         0.715877         1.400785
 H        -4.975919         2.451606         0.703682
 H        -4.198577        -0.217685        -0.564108
 H        -3.196872         1.243191        -0.907708
 H        -2.645244        -1.014995         1.132072
