19
Iteration:  2329charge 0 multiplicity 1
 O         0.094535        -0.333188         0.237357
 C        -0.964286         0.430105         0.786160
 C        -1.263319         2.014692         0.730593
 C        -2.268570         1.281195         1.692585
 C        -0.982645         0.476614         2.359672
 O        -3.510405         1.724381         2.049058
 C        -4.430629         1.519216         0.825278
 C        -3.602707         0.688126        -0.178368
 C        -2.459482         0.133599         0.638983
 H        -0.118595        -0.454338        -0.755572
 H        -0.603089         2.795497         1.227893
 H        -1.548677         2.354211        -0.316182
 H        -0.273309         1.254498         2.762644
 H        -1.252837        -0.580946         2.901746
 H        -5.222026         0.876867         1.228713
 H        -4.846837         2.442076         0.547921
 H        -4.276339        -0.128676        -0.637576
 H        -3.507400         1.344570        -0.990120
 H        -2.695206        -0.891769         0.835059
