19
Iteration:   122charge 0 multiplicity 1
 O         0.110355        -0.144640         0.138671
 C        -0.927680         0.355290         0.820056
 C        -1.219499         1.864837         0.768887
 C        -2.371451         1.108499         1.678742
 C        -1.257602         0.354159         2.311343
 O        -3.516618         1.813637         2.032626
 C        -4.386535         1.541863         0.925653
 C        -3.443990         0.801336        -0.260126
 C        -2.475366         0.087043         0.666627
 H         0.794713         0.551461         0.160392
 H        -0.576006         2.611139         1.316479
 H        -1.525324         2.134762        -0.125224
 H        -0.598769         0.934235         3.009029
 H        -1.519443        -0.577795         2.743543
 H        -5.136226         0.780911         1.184460
 H        -4.829056         2.474277         0.486606
 H        -3.920464         0.080525        -0.873622
 H        -3.053354         1.617465        -0.850053
 H        -2.816342        -0.874561         0.909608
