19
Iteration:  4746
 O        -0.005019        -0.269885         0.050815
 C        -1.019516         0.389095         0.701462
 C        -1.325571         1.952722         0.623264
 C        -2.254176         1.329213         1.653047
 C        -0.978886         0.654508         2.380499
 O        -3.608061         1.736508         2.068372
 C        -4.294990         1.629769         0.767745
 C        -3.545392         0.425223        -0.032995
 C        -2.457322         0.006256         0.853066
 H         0.831668        -0.060042         0.491586
 H        -0.520186         2.499045         1.043676
 H        -1.710488         2.407778        -0.262210
 H        -0.253912         1.383478         2.721526
 H        -1.034941        -0.256425         2.899825
 H        -5.313439         1.374123         1.082755
 H        -4.382439         2.605594         0.231101
 H        -4.231499        -0.363983        -0.407760
 H        -3.115296         0.967826        -0.980935
 H        -2.624801        -0.874768         1.552850
