19
Iteration:  3355charge 0 multiplicity 1
 O         0.148118        -0.265500         0.113845
 C        -0.863739         0.455303         0.797658
 C        -1.110165         1.880730         0.726660
 C        -2.274886         1.329017         1.635842
 C        -1.140353         0.473053         2.373385
 O        -3.487213         1.940472         1.949650
 C        -4.519572         1.264115         0.948155
 C        -3.675984         0.702165        -0.181985
 C        -2.530460         0.189053         0.653717
 H         0.578629        -0.984612         0.676426
 H        -0.412176         2.619502         1.145212
 H        -1.416454         2.268627        -0.217084
 H        -0.356161         0.896600         3.056390
 H        -1.553606        -0.487264         2.839008
 H        -5.157919         0.484929         1.419397
 H        -5.278770         2.025398         0.722904
 H        -4.265879        -0.037926        -0.626152
 H        -3.379611         1.497913        -0.887487
 H        -2.610842        -0.795379         1.040312
