19
Iteration:  2490charge 0 multiplicity 1
 O         0.108135        -0.221119         0.168997
 C        -0.934444         0.456554         0.761612
 C        -1.337894         1.976803         0.713201
 C        -2.291211         1.217403         1.717093
 C        -1.154176         0.502232         2.276276
 O        -3.502353         1.801746         2.035075
 C        -4.289787         1.498621         0.864985
 C        -3.564441         0.652249        -0.141187
 C        -2.484176         0.030015         0.756289
 H        -0.225741        -0.752628        -0.635843
 H        -0.423857         2.433037         1.106255
 H        -1.550302         2.474004        -0.186315
 H        -0.333972         1.129906         2.890663
 H        -1.288362        -0.446129         2.736743
 H        -5.235361         0.915704         1.065574
 H        -4.676070         2.462212         0.520668
 H        -4.186136        -0.025195        -0.679703
 H        -3.022370         1.332434        -1.029043
 H        -2.739051        -1.019906         1.210003
