19
Iteration:   867charge 0 multiplicity 1
 O         0.097515        -0.237181        -0.099015
 C        -0.875619         0.463152         0.749131
 C        -1.200008         2.004803         0.860819
 C        -2.326543         1.283034         1.786744
 C        -1.162341         0.525696         2.366267
 O        -3.597847         1.647082         2.067641
 C        -4.288738         1.653228         0.651729
 C        -3.683022         0.462444        -0.114597
 C        -2.470984         0.061535         0.835011
 H         0.957909         0.091141         0.082118
 H        -0.409871         2.578577         1.508053
 H        -1.471724         2.510357        -0.086194
 H        -0.466931         1.226533         2.956814
 H        -1.325571        -0.376761         2.889570
 H        -5.365550         1.656258         0.849328
 H        -3.977131         2.680320         0.426028
 H        -4.508718        -0.407039        -0.349247
 H        -3.295367         0.781753        -1.101392
 H        -2.716267        -0.957771         1.334919
