19
Iteration:  3439
 O         0.196655        -0.193302         0.131370
 C        -0.926122         0.417988         0.759368
 C        -1.392103         2.040750         0.603088
 C        -2.351961         1.233248         1.692772
 C        -1.157446         0.517410         2.388151
 O        -3.537467         1.625205         2.114422
 C        -4.158956         1.744345         0.708920
 C        -3.673661         0.479807        -0.052572
 C        -2.413791         0.070266         0.761606
 H         0.010222        -0.845014        -0.501922
 H        -0.744207         2.709510         1.113278
 H        -1.744769         2.401976        -0.348269
 H        -0.560512         1.072414         3.042898
 H        -1.435227        -0.470952         2.759693
 H        -5.262345         1.698721         0.781851
 H        -3.707573         2.623407         0.290375
 H        -4.579858        -0.227131        -0.043562
 H        -3.504505         0.712411        -1.086102
 H        -2.786739        -0.836098         1.364465
