19
Iteration:  4747charge 0 multiplicity 1
 O         0.001536        -0.267874         0.049037
 C        -1.012594         0.386498         0.701260
 C        -1.326942         1.944815         0.617864
 C        -2.263789         1.326699         1.671985
 C        -0.978397         0.650539         2.380452
 O        -3.611916         1.742710         2.065734
 C        -4.292545         1.640163         0.766311
 C        -3.550771         0.433944        -0.036140
 C        -2.454961         0.005299         0.853152
 H         0.875892        -0.046183         0.491827
 H        -0.525410         2.486672         1.039768
 H        -1.719092         2.400114        -0.294008
 H        -0.257116         1.414890         2.688949
 H        -1.028891        -0.280388         2.880430
 H        -5.292726         1.351689         1.083910
 H        -4.395744         2.562216         0.260973
 H        -4.240700        -0.430414        -0.402002
 H        -3.113200         0.963247        -0.959715
 H        -2.651784        -0.883524         1.547553
