19
Iteration:  4348charge 0 multiplicity 1
 O         0.156410        -0.241139         0.119747
 C        -0.933624         0.484125         0.686840
 C        -1.396685         1.924524         0.571360
 C        -2.323237         1.228804         1.763988
 C        -1.060696         0.662194         2.367235
 O        -3.665987         1.729361         2.121309
 C        -4.248649         1.588915         0.780540
 C        -3.538100         0.527758        -0.035722
 C        -2.434986         0.035284         0.804015
 H        -0.174002        -1.002205        -0.326233
 H        -0.580322         2.503859         0.942314
 H        -1.781389         2.244004        -0.384950
 H        -0.288321         1.351397         2.576095
 H        -1.102056        -0.254829         2.878397
 H        -5.287584         1.480066         0.719784
 H        -4.099089         2.557834         0.188341
 H        -4.217321        -0.281337        -0.256414
 H        -3.293936         0.947234        -1.113761
 H        -2.457800        -0.978631         1.307700
