19
Iteration:  3531
 O         0.004017        -0.354618         0.115299
 C        -0.922457         0.450961         0.733338
 C        -1.268649         1.954130         0.718497
 C        -2.256073         1.307337         1.662399
 C        -1.109051         0.631708         2.419887
 O        -3.511294         1.778187         2.002424
 C        -4.336700         1.443308         0.904343
 C        -3.645552         0.602987        -0.239060
 C        -2.434200         0.115237         0.703965
 H         0.910269        -0.195963         0.571740
 H        -0.453702         2.501956         1.201557
 H        -1.690406         2.281005        -0.248795
 H        -0.304096         1.333113         2.925149
 H        -1.300396        -0.348166         2.956409
 H        -5.148561         0.757866         1.345476
 H        -4.859761         2.456501         0.656360
 H        -4.126636        -0.260602        -0.638292
 H        -3.239061         1.182220        -1.200809
 H        -2.668594        -0.758501         1.335916
