19
Iteration:  2247
 O         0.208832        -0.238875         0.148577
 C        -0.877047         0.485345         0.688558
 C        -1.267954         1.968392         0.810417
 C        -2.320839         1.178402         1.716479
 C        -1.127238         0.468765         2.252529
 O        -3.575273         1.704902         2.080624
 C        -4.258894         1.744154         0.718302
 C        -3.742126         0.442172        -0.123459
 C        -2.498474         0.037281         0.779791
 H         0.332532         0.256199        -0.636443
 H        -0.580346         2.599880         1.376944
 H        -1.765216         2.556192         0.001384
 H        -0.154174         0.924204         2.962742
 H        -1.377033        -0.417676         2.819787
 H        -5.349786         1.920672         0.939972
 H        -3.917482         2.797289         0.359616
 H        -4.614089        -0.192341        -0.227863
 H        -3.563413         0.839143        -1.212144
 H        -2.698875        -0.849401         1.475088
