19
Iteration:  1345charge 0 multiplicity 1
 O         0.158746        -0.342411         0.160569
 C        -0.908607         0.397152         0.759569
 C        -1.181124         1.912320         0.702968
 C        -2.278857         1.346801         1.583932
 C        -1.160348         0.514323         2.268299
 O        -3.593231         1.755932         2.062401
 C        -4.427582         1.405508         0.952183
 C        -3.620470         0.742855        -0.138701
 C        -2.451763         0.151763         0.637234
 H         0.955360         0.104646         0.385536
 H        -0.510012         2.534547         1.373558
 H        -1.304565         2.394336        -0.263589
 H        -0.530425         1.313102         2.726652
 H        -1.500007        -0.216584         2.907811
 H        -5.136752         0.642507         1.478518
 H        -5.122915         2.224175         0.701654
 H        -4.288218        -0.106132        -0.651617
 H        -3.320658         1.399752        -0.980937
 H        -2.610102        -0.765018         1.199536
