19
Iteration:  4295
 O         0.149316        -0.185118         0.060357
 C        -0.935411         0.409577         0.766205
 C        -1.280497         1.905315         0.673641
 C        -2.292457         1.310681         1.703516
 C        -1.132755         0.591283         2.366078
 O        -3.555523         1.939574         2.014543
 C        -4.445726         1.525429         0.933383
 C        -3.561112         0.417667        -0.116277
 C        -2.371959         0.002797         0.709833
 H         0.004900        -1.105974        -0.012374
 H        -0.461824         2.510301         1.220252
 H        -1.565975         2.366679        -0.362833
 H        -0.307231         1.206574         2.838860
 H        -1.480101        -0.322498         3.000740
 H        -5.227709         0.934988         1.342036
 H        -4.725711         2.459669         0.265694
 H        -4.164592        -0.309845        -0.485049
 H        -3.412417         0.956843        -1.089307
 H        -2.581758        -0.913359         1.281486
