19
Iteration:   146charge 0 multiplicity 1
 O         0.054532        -0.300591         0.067633
 C        -0.945608         0.426531         0.732790
 C        -1.267815         1.980352         0.946216
 C        -2.315268         1.245533         1.807966
 C        -1.147848         0.457314         2.460038
 O        -3.583237         1.636343         2.028733
 C        -4.335463         1.618053         0.764637
 C        -3.537934         0.712847        -0.308004
 C        -2.411537         0.105894         0.639865
 H         0.824633         0.259737        -0.348397
 H        -0.414678         2.488816         1.445952
 H        -1.689080         2.548337         0.151186
 H        -0.284135         0.833464         3.091512
 H        -1.287819        -0.523494         2.835950
 H        -5.257367         1.100976         0.960273
 H        -4.452983         2.667637         0.365472
 H        -4.159002        -0.098704        -0.777488
 H        -3.158838         1.467651        -1.095774
 H        -2.795104        -0.887889         0.945120
