19
Iteration:  3318charge 0 multiplicity 1
 O         0.251437        -0.285213         0.246996
 C        -0.850191         0.427842         0.722303
 C        -1.166537         1.954072         0.686643
 C        -2.237959         1.387635         1.622313
 C        -1.247506         0.457208         2.336904
 O        -3.429540         1.953976         1.959899
 C        -4.513587         1.226054         1.055325
 C        -3.762636         0.687627        -0.181943
 C        -2.470252         0.184271         0.544375
 H        -0.001526        -1.204169         0.616116
 H        -0.502975         2.563026         1.196484
 H        -1.587256         2.365383        -0.239020
 H        -0.397375         0.781045         2.926846
 H        -1.806423        -0.436454         2.701530
 H        -4.647980         0.470226         1.769356
 H        -5.271746         1.959316         0.758503
 H        -4.334788         0.033134        -0.938027
 H        -3.450191         1.479646        -0.814827
 H        -2.817123        -0.797435         0.911813
