19
Iteration:  1473charge 0 multiplicity 1
 O         0.040897        -0.309305         0.197012
 C        -0.910269         0.467043         0.729396
 C        -1.284690         1.968514         0.686441
 C        -2.339083         1.192666         1.640191
 C        -1.079003         0.531031         2.284580
 O        -3.569577         1.714551         2.068665
 C        -4.354579         1.574717         0.883203
 C        -3.555947         0.643615        -0.134434
 C        -2.422702         0.094490         0.642658
 H         0.965957         0.115101         0.299415
 H        -0.463844         2.542265         1.263061
 H        -1.754200         2.392696        -0.165937
 H        -0.524559         1.378282         2.794407
 H        -1.182167        -0.442428         2.895355
 H        -5.257876         1.045217         1.237893
 H        -4.608571         2.602297         0.532543
 H        -4.290786        -0.155531        -0.288581
 H        -3.187923         1.155485        -0.987485
 H        -2.551957        -0.992812         1.017129
