19
Iteration:    57
 O        -0.046957        -0.388686         0.167633
 C        -0.907425         0.510790         0.705702
 C        -1.017058         2.114071         0.891109
 C        -2.274870         1.264223         1.689643
 C        -1.316133         0.336704         2.380278
 O        -3.525056         1.839561         1.940067
 C        -4.414055         1.190035         0.941252
 C        -3.574956         0.802361        -0.249024
 C        -2.357869         0.279443         0.503153
 H         0.904473        -0.217307         0.589937
 H        -0.251838         2.765141         1.494312
 H        -1.396819         2.565310         0.079794
 H        -0.601266         0.664927         3.188846
 H        -1.649732        -0.563625         2.783865
 H        -4.796995         0.409610         1.563278
 H        -5.209048         1.965906         0.775444
 H        -4.125550         0.038104        -0.794101
 H        -3.474698         1.740829        -0.907309
 H        -2.566436        -0.757084         0.781340
