19
Iteration:  3920
 O         0.259141        -0.302679         0.238104
 C        -0.810089         0.387647         0.780761
 C        -1.165801         1.924116         0.513017
 C        -2.315604         1.374061         1.582870
 C        -1.092849         0.555365         2.340493
 O        -3.505739         1.845495         1.954760
 C        -4.531548         1.275139         1.030177
 C        -3.812442         0.711727        -0.147201
 C        -2.510827         0.161347         0.680572
 H         0.895611        -0.672025         0.940235
 H        -0.415857         2.619267         0.946000
 H        -1.476452         2.256620        -0.538466
 H        -0.314077         1.159802         2.938482
 H        -1.619766        -0.274316         2.908569
 H        -5.019710         0.545230         1.616516
 H        -5.005110         2.158937         0.640914
 H        -4.363236        -0.104392        -0.589302
 H        -3.700186         1.465785        -0.874241
 H        -2.824651        -0.712898         1.185114
