19
Iteration:  1047
 O         0.047183        -0.289836         0.099305
 C        -0.867190         0.471339         0.724850
 C        -1.207877         1.953081         0.727459
 C        -2.227812         1.292343         1.696677
 C        -1.176131         0.468979         2.405618
 O        -3.483561         1.828548         2.052962
 C        -4.429907         1.453667         0.875640
 C        -3.635279         0.591822        -0.284318
 C        -2.451463         0.131923         0.731486
 H         0.931797         0.088228         0.413421
 H        -0.563014         2.590683         1.224634
 H        -1.656915         2.508824        -0.138701
 H        -0.504406         1.085796         2.920625
 H        -1.500965        -0.523577         2.858064
 H        -5.102225         0.705989         1.283684
 H        -5.021884         2.311117         0.568022
 H        -4.304154        -0.184989        -0.446038
 H        -3.217297         0.994019        -1.244452
 H        -2.793523        -0.756159         1.226425
