19
Iteration:  4337
 O         0.089083        -0.248817         0.102457
 C        -0.932064         0.399341         0.794008
 C        -1.299702         1.958510         0.637466
 C        -2.291579         1.330963         1.667552
 C        -1.021752         0.680499         2.313719
 O        -3.691431         1.685164         2.126235
 C        -4.305880         1.601435         0.787869
 C        -3.559596         0.468100        -0.078926
 C        -2.355522         0.065362         0.770712
 H        -0.311334        -0.996139        -0.308433
 H        -0.701675         2.820020         0.860382
 H        -1.853486         2.155680        -0.262524
 H        -0.333981         1.292111         2.865995
 H        -1.237501        -0.153195         2.933768
 H        -5.306395         1.412084         1.043883
 H        -4.091686         2.626254         0.310789
 H        -4.220917        -0.349480        -0.279776
 H        -3.175787         0.908314        -1.112028
 H        -2.600787        -0.951691         1.221880
