19
Iteration:   863
 O         0.085637        -0.221570        -0.092902
 C        -0.887767         0.474165         0.750587
 C        -1.202328         1.998392         0.835707
 C        -2.289672         1.297460         1.772003
 C        -1.149221         0.489895         2.410547
 O        -3.610465         1.630315         2.030515
 C        -4.284203         1.672643         0.645389
 C        -3.696063         0.474766        -0.081930
 C        -2.468263         0.018027         0.836226
 H         0.934440         0.233765         0.256700
 H        -0.498419         2.553579         1.397975
 H        -1.546285         2.560365        -0.133301
 H        -0.535819         1.210015         2.895388
 H        -1.256450        -0.546726         2.817598
 H        -5.353699         1.762099         0.910366
 H        -4.014610         2.696388         0.354490
 H        -4.394163        -0.282370        -0.240460
 H        -3.271958         0.854256        -1.045104
 H        -2.607783        -0.899520         1.390330
