19
Iteration:  4978charge 0 multiplicity 1
 O         0.160239        -0.273057         0.166942
 C        -0.962978         0.354976         0.747914
 C        -1.244569         1.884258         0.572014
 C        -2.274226         1.281871         1.618346
 C        -1.106533         0.667714         2.439478
 O        -3.514448         1.853718         2.047681
 C        -4.388119         1.409592         0.988463
 C        -3.628202         0.667728        -0.143889
 C        -2.490591         0.016284         0.711239
 H         0.007393        -0.249430        -0.847357
 H        -0.377154         2.376639         0.936280
 H        -1.688614         2.098011        -0.364538
 H        -0.298573         1.303688         2.581822
 H        -1.146936        -0.137369         3.149670
 H        -5.313490         0.848141         1.484780
 H        -4.745877         2.388227         0.395929
 H        -4.168222        -0.030223        -0.874610
 H        -3.257225         1.400372        -0.772453
 H        -2.861812        -0.882040         1.317213
