19
Iteration:   533charge 0 multiplicity 1
 O         0.248240        -0.217671         0.126847
 C        -0.935333         0.438494         0.744384
 C        -1.367982         1.875200         0.581605
 C        -2.367820         1.122502         1.677871
 C        -1.143160         0.558247         2.491146
 O        -3.596266         1.606540         2.051814
 C        -4.335382         1.831048         0.909655
 C        -3.603312         0.625146        -0.149337
 C        -2.417161        -0.037902         0.697197
 H         0.719921         0.454667        -0.411413
 H        -0.784100         2.724669         1.024883
 H        -1.676968         2.122446        -0.341543
 H        -0.447737         1.232548         3.011758
 H        -1.245726        -0.366818         2.939816
 H        -5.410129         1.822978         1.187962
 H        -4.015293         2.732541         0.452895
 H        -4.194745        -0.296176        -0.475919
 H        -3.406080         1.241989        -1.044250
 H        -2.594914        -1.061217         1.007517
