19
Iteration:  2016charge 0 multiplicity 1
 O         0.094125        -0.304496         0.116446
 C        -0.913984         0.432658         0.716892
 C        -1.271758         1.982505         0.711658
 C        -2.327266         1.217173         1.709464
 C        -1.064723         0.486573         2.340956
 O        -3.497476         1.825348         2.029784
 C        -4.461018         1.507672         0.876551
 C        -3.517401         0.630208        -0.169932
 C        -2.510307         0.058236         0.693050
 H         0.821650         0.283315         0.097873
 H        -0.553297         2.558855         1.313810
 H        -1.532587         2.445920        -0.232930
 H        -0.382085         1.010867         3.005787
 H        -1.530680        -0.377509         2.925042
 H        -5.305435         0.984631         1.368425
 H        -4.989218         2.505173         0.463979
 H        -4.208362        -0.164700        -0.587106
 H        -3.032618         1.339048        -0.843184
 H        -2.700536        -0.908655         1.235180
