19
Iteration:  2708
 O         0.218253        -0.386706         0.199383
 C        -0.874246         0.423522         0.753186
 C        -1.144007         1.998486         0.653024
 C        -2.325762         1.354972         1.626709
 C        -1.206342         0.482312         2.373584
 O        -3.545634         1.848270         2.072875
 C        -4.440753         1.292817         0.960247
 C        -3.673668         0.737032        -0.181961
 C        -2.443236         0.153192         0.614275
 H        -0.040289        -0.342426        -0.781035
 H        -0.258762         2.474811         1.118265
 H        -1.410230         2.432567        -0.304316
 H        -0.533092         1.247996         2.983431
 H        -1.476687        -0.453082         2.843523
 H        -4.916226         0.472173         1.497647
 H        -5.032438         2.253842         0.698952
 H        -4.305684         0.061070        -0.750211
 H        -3.226824         1.529711        -0.837025
 H        -2.923647        -0.575643         1.225378
