19
Iteration:  4486
 O         0.091231        -0.183150         0.112425
 C        -0.963798         0.374640         0.740732
 C        -1.180515         1.903573         0.568294
 C        -2.295830         1.290550         1.698241
 C        -1.067730         0.671407         2.386642
 O        -3.525473         1.763237         2.062479
 C        -4.399904         1.503354         0.881464
 C        -3.641810         0.566825        -0.167297
 C        -2.471351         0.069276         0.786746
 H         0.266976        -1.082178         0.427703
 H        -0.422726         2.638123         0.950128
 H        -1.406962         2.050987        -0.506843
 H        -0.258975         1.353150         2.825456
 H        -1.272336        -0.231378         3.017701
 H        -5.281787         0.964846         1.384901
 H        -4.771907         2.433830         0.364674
 H        -4.295821        -0.276347        -0.543850
 H        -3.329267         1.028009        -1.015791
 H        -2.692427        -0.912140         1.194821
