19
Iteration:  1324charge 0 multiplicity 1
 O         0.100168        -0.266194         0.127077
 C        -0.903739         0.465543         0.792046
 C        -1.243988         1.911988         0.638725
 C        -2.264746         1.197998         1.723430
 C        -1.146716         0.507453         2.471216
 O        -3.457252         1.841900         2.002699
 C        -4.463534         1.410708         0.961845
 C        -3.635964         0.673516        -0.242450
 C        -2.452397         0.105566         0.578105
 H         0.923674        -0.033276         0.629029
 H        -0.582648         2.718407         1.002936
 H        -1.684723         2.262396        -0.292863
 H        -0.442882         1.208247         3.123309
 H        -1.321967        -0.524137         2.731245
 H        -5.287200         0.795340         1.588166
 H        -4.954436         2.396295         0.639338
 H        -4.281757        -0.084730        -0.883817
 H        -3.331763         1.495076        -0.908349
 H        -2.652122        -0.923911         0.851447
