19
Iteration:  2504
 O         0.099863        -0.185171         0.146945
 C        -0.993902         0.448776         0.779218
 C        -1.229793         1.964217         0.728446
 C        -2.301047         1.220743         1.713875
 C        -1.020762         0.421810         2.367244
 O        -3.525152         1.818171         2.046561
 C        -4.394807         1.576013         0.831418
 C        -3.563728         0.557968        -0.218392
 C        -2.458119         0.087792         0.701465
 H        -0.239227        -0.727737        -0.571585
 H        -0.596730         2.701940         1.265052
 H        -1.907655         2.314855        -0.109621
 H        -0.298172         0.983721         2.905317
 H        -1.183260        -0.503612         2.858643
 H        -5.310778         1.139218         1.368364
 H        -4.545503         2.488884         0.294465
 H        -4.246429        -0.259425        -0.438172
 H        -3.222840         1.120124        -1.064686
 H        -2.757188        -0.911906         1.195110
