19
Iteration:   908
 O         0.052358        -0.247077         0.101600
 C        -0.900450         0.523569         0.783550
 C        -1.329978         1.964577         0.701571
 C        -2.270419         1.147131         1.705863
 C        -1.100507         0.464474         2.376003
 O        -3.503109         1.720915         2.010313
 C        -4.353553         1.552140         0.807275
 C        -3.568897         0.671868        -0.144059
 C        -2.505467         0.067278         0.761340
 H         0.967673         0.166729         0.174255
 H        -0.597579         2.744154         1.004182
 H        -1.878629         2.313817        -0.250729
 H        -0.316584         0.943051         2.979374
 H        -1.508444        -0.484883         2.622657
 H        -5.246896         1.074481         1.264010
 H        -4.717735         2.466376         0.316999
 H        -4.212773        -0.096165        -0.592956
 H        -3.011367         1.281278        -0.867863
 H        -2.581566        -0.891382         1.296310
