19
Iteration:  1837charge 0 multiplicity 1
 O         0.003633        -0.309942         0.060055
 C        -0.926553         0.439989         0.743866
 C        -1.172630         1.960956         0.741333
 C        -2.222303         1.334702         1.738669
 C        -1.125293         0.533080         2.348336
 O        -3.556706         1.732478         2.062664
 C        -4.426041         1.503404         0.855560
 C        -3.605450         0.589475        -0.181730
 C        -2.424037         0.087324         0.706555
 H         0.874938         0.147310         0.273440
 H        -0.663364         2.717969         1.249040
 H        -1.646940         2.370977        -0.170752
 H        -0.328448         1.104789         2.806628
 H        -1.454800        -0.318562         2.939152
 H        -5.322185         0.976223         1.261737
 H        -4.356629         2.395854         0.185106
 H        -4.094781        -0.224377        -0.629579
 H        -3.300058         1.282012        -0.972189
 H        -2.700322        -0.810286         1.296292
