19
Iteration:  3755
 O         0.269932        -0.081442         0.244267
 C        -0.953981         0.378149         0.769714
 C        -1.244562         1.882500         0.467671
 C        -2.277469         1.215793         1.702813
 C        -1.143075         0.520042         2.424588
 O        -3.536639         1.812842         2.069355
 C        -4.300059         1.696490         0.819965
 C        -3.790838         0.448146        -0.080040
 C        -2.517188        -0.051477         0.701165
 H         0.246973         0.243562        -0.639172
 H        -0.350735         2.542765         0.750935
 H        -1.638706         2.159302        -0.592599
 H        -0.339690         1.298705         2.808183
 H        -1.392544        -0.519730         2.953185
 H        -5.299864         1.489687         1.227882
 H        -4.006187         2.684584         0.416902
 H        -4.557959        -0.395258         0.016499
 H        -3.632519         0.524917        -1.083575
 H        -2.695841        -1.008033         1.098626
