19
Iteration:  2903charge 0 multiplicity 1
 O         0.191932        -0.018445         0.136639
 C        -1.012346         0.432895         0.819669
 C        -1.325898         1.855024         0.618222
 C        -2.311243         1.182279         1.672389
 C        -1.096876         0.449976         2.327257
 O        -3.493523         1.792545         2.043172
 C        -4.250971         1.647503         0.773547
 C        -3.726889         0.528181        -0.051487
 C        -2.438926        -0.018843         0.787458
 H        -0.152454        -0.951026        -0.096060
 H        -0.789937         2.753444         1.109790
 H        -1.559290         2.149818        -0.430800
 H        -0.385101         1.090929         2.934249
 H        -1.230068        -0.450477         2.806194
 H        -5.283731         1.696361         1.015427
 H        -4.045085         2.700168         0.356773
 H        -4.319617        -0.320641        -0.202640
 H        -3.474260         0.937595        -1.035364
 H        -2.636718        -1.112991         0.941031
