19
Iteration:  4514charge 0 multiplicity 1
 O         0.150051        -0.250786         0.143377
 C        -0.871372         0.408625         0.732472
 C        -1.234700         1.973149         0.723430
 C        -2.251408         1.285747         1.562434
 C        -1.158158         0.576082         2.348256
 O        -3.474729         1.903465         1.945909
 C        -4.472794         1.467402         0.983396
 C        -3.681102         0.473075        -0.075848
 C        -2.383973         0.088295         0.708673
 H        -0.117888        -1.097325        -0.140212
 H        -0.615508         2.820568         1.054949
 H        -1.507073         2.337948        -0.285937
 H        -0.533824         1.197990         2.946524
 H        -1.349789        -0.330675         2.927498
 H        -5.233425         1.071340         1.624402
 H        -5.008988         2.257030         0.415048
 H        -4.258671        -0.402565        -0.305377
 H        -3.493179         1.046188        -1.164988
 H        -2.697959        -0.807900         1.337522
