19
Iteration:  3356
 O         0.150244        -0.265268         0.107275
 C        -0.865253         0.441394         0.801833
 C        -1.117439         1.892660         0.722768
 C        -2.266440         1.325821         1.636395
 C        -1.140785         0.468971         2.380184
 O        -3.492925         1.945143         1.954035
 C        -4.519648         1.262783         0.950511
 C        -3.670931         0.699958        -0.185275
 C        -2.526774         0.186953         0.659268
 H         0.564252        -0.964143         0.670910
 H        -0.396804         2.660813         1.131501
 H        -1.421043         2.277814        -0.252263
 H        -0.357134         0.891644         3.072947
 H        -1.546696        -0.469721         2.839204
 H        -5.177175         0.492076         1.404929
 H        -5.270626         2.057624         0.708483
 H        -4.252095        -0.041008        -0.652953
 H        -3.378783         1.510785        -0.911112
 H        -2.653777        -0.828410         1.045972
