19
Iteration:  1930charge 0 multiplicity 1
 O         0.060524        -0.205586         0.069141
 C        -0.952337         0.455638         0.779333
 C        -1.284942         1.942053         0.724437
 C        -2.299320         1.230648         1.751938
 C        -1.076240         0.485567         2.386501
 O        -3.556262         1.752876         2.049808
 C        -4.261105         1.713900         0.828660
 C        -3.665671         0.465254        -0.198530
 C        -2.399769        -0.011556         0.678292
 H         0.949039         0.164926         0.063768
 H        -0.640866         2.805491         1.215662
 H        -2.057927         2.251768        -0.035456
 H        -0.426995         1.106092         3.052801
 H        -1.264228        -0.450963         2.857081
 H        -5.261654         1.517189         1.094126
 H        -4.001642         2.573810         0.326485
 H        -4.631700        -0.197806        -0.163073
 H        -3.436377         0.846499        -1.229357
 H        -2.688561        -0.960280         1.140039
