19
Iteration:  3110charge 0 multiplicity 1
 O         0.008282        -0.293871         0.046193
 C        -0.928910         0.419294         0.772013
 C        -1.189466         1.939722         0.685563
 C        -2.279946         1.357315         1.682092
 C        -1.175884         0.582501         2.359908
 O        -3.560233         1.819143         1.990696
 C        -4.390548         1.361670         0.963148
 C        -3.477024         0.637350        -0.177265
 C        -2.404862         0.128624         0.731649
 H         0.133380        -1.026816         0.650713
 H        -0.558414         2.664359         1.144294
 H        -1.571320         2.370553        -0.222389
 H        -0.414512         1.283402         2.927227
 H        -1.422703        -0.292376         2.986163
 H        -5.182761         0.631541         1.416323
 H        -4.669171         2.253645         0.507514
 H        -3.981558        -0.167028        -0.713790
 H        -3.269404         1.400420        -0.916695
 H        -2.737298        -0.838973         1.053128
