19
Iteration:   812
 O         0.205029        -0.205169         0.113977
 C        -0.911692         0.428239         0.662912
 C        -1.451823         1.907656         0.688426
 C        -2.316275         1.092207         1.719897
 C        -1.094662         0.558210         2.397338
 O        -3.537990         1.711619         2.062395
 C        -4.267694         1.731108         0.806279
 C        -3.600445         0.565969        -0.111913
 C        -2.533407        -0.048458         0.726131
 H         0.863529         0.482328         0.070001
 H        -0.738103         2.631990         1.190662
 H        -1.862842         2.472857        -0.199487
 H        -0.391088         1.258680         2.948157
 H        -1.416696        -0.290928         2.929922
 H        -5.350822         1.665311         0.939383
 H        -4.061401         2.786769         0.543275
 H        -4.391216        -0.192252        -0.563849
 H        -3.091911         1.084007        -0.958428
 H        -2.784644        -1.038808         1.244483
