19
Iteration:   649
 O         0.104642        -0.357128         0.172133
 C        -0.864210         0.399973         0.765629
 C        -1.243816         2.008813         0.717094
 C        -2.299930         1.319492         1.612131
 C        -1.099035         0.479649         2.269297
 O        -3.577075         1.743082         2.078423
 C        -4.457379         1.402986         0.954977
 C        -3.521831         0.706862        -0.214921
 C        -2.493344         0.175088         0.679763
 H         1.028932        -0.002721         0.427027
 H        -0.440763         2.739373         0.917896
 H        -1.703546         2.517625        -0.203878
 H        -0.402291         1.126904         2.987633
 H        -1.310955        -0.475111         2.765827
 H        -5.269672         0.722922         1.283084
 H        -4.982288         2.315662         0.535378
 H        -4.078237        -0.041948        -0.855584
 H        -3.327384         1.569666        -0.802230
 H        -2.866071        -0.773297         1.163797
