19
Iteration:  3852charge 0 multiplicity 1
 O         0.120327        -0.240180         0.023139
 C        -0.928418         0.371520         0.832062
 C        -1.188463         1.889536         0.641403
 C        -2.296466         1.331090         1.671197
 C        -1.093926         0.627121         2.425638
 O        -3.581044         1.943085         1.994038
 C        -4.490919         1.317193         0.913567
 C        -3.512457         0.570904        -0.134028
 C        -2.401141         0.128654         0.772789
 H        -0.371665        -1.002472        -0.258232
 H        -0.389067         2.436214         1.157730
 H        -1.418846         2.324832        -0.338076
 H        -0.454865         1.414910         2.808690
 H        -1.451350        -0.291238         2.957470
 H        -5.183990         0.635273         1.462053
 H        -4.888540         2.160132         0.339493
 H        -4.152590        -0.304146        -0.493451
 H        -3.405998         1.180218        -0.987010
 H        -2.628690        -0.825160         1.239333
