19
Iteration:  1355charge 0 multiplicity 1
 O         0.133377        -0.364212         0.176157
 C        -0.914324         0.421108         0.703207
 C        -1.135300         1.985672         0.673589
 C        -2.281974         1.333078         1.639037
 C        -1.161412         0.546294         2.303530
 O        -3.505654         1.710169         2.009889
 C        -4.473634         1.368159         0.945577
 C        -3.621726         0.684368        -0.178140
 C        -2.538059         0.227020         0.749838
 H         0.886588         0.230527         0.325627
 H        -0.372015         2.613319         1.307286
 H        -1.375025         2.528137        -0.237439
 H        -0.447075         1.006218         2.996990
 H        -1.375933        -0.409982         2.612126
 H        -5.126635         0.535970         1.301510
 H        -4.940666         2.272682         0.621286
 H        -4.301540        -0.103236        -0.778583
 H        -3.146610         1.463374        -0.782986
 H        -2.992889        -0.670944         1.249525
