19
Iteration:  2735charge 0 multiplicity 1
 O         0.131824        -0.306559         0.323031
 C        -0.938543         0.460743         0.763292
 C        -1.152263         1.958966         0.727966
 C        -2.296643         1.275498         1.600169
 C        -1.088032         0.476282         2.299157
 O        -3.479417         1.845027         1.926541
 C        -4.533746         1.323789         1.047752
 C        -3.690784         0.760940        -0.179472
 C        -2.400298         0.169424         0.541209
 H        -0.140448        -0.654654        -0.603344
 H        -0.331056         2.455945         1.263318
 H        -1.450486         2.512020        -0.177430
 H        -0.418713         1.052047         2.833555
 H        -1.251622        -0.617548         2.690406
 H        -4.888701         0.438094         1.607067
 H        -5.071614         2.187613         0.878619
 H        -4.105832        -0.165361        -0.702844
 H        -3.375677         1.525707        -0.883660
 H        -2.860697        -0.654664         1.137017
