19
Iteration:  2801charge 0 multiplicity 1
 O         0.049455        -0.286662         0.094926
 C        -0.882917         0.426066         0.767937
 C        -1.196462         1.922828         0.706800
 C        -2.311032         1.243747         1.696242
 C        -1.128114         0.540921         2.392254
 O        -3.511147         1.801220         2.016792
 C        -4.501430         1.510847         0.876539
 C        -3.558541         0.613218        -0.175621
 C        -2.426160         0.083318         0.723074
 H         0.660268         0.397279        -0.172088
 H        -0.501161         2.387673         1.319937
 H        -1.306029         2.289872        -0.295445
 H        -0.319614         1.157271         2.711017
 H        -1.383507        -0.478482         2.864084
 H        -5.328875         0.923184         1.391882
 H        -4.825869         2.474907         0.582739
 H        -4.226281        -0.153007        -0.661397
 H        -3.184963         1.262180        -0.985493
 H        -2.807485        -0.792908         1.245560
