19
Iteration:  3555charge 0 multiplicity 1
 O         0.044764        -0.402669         0.107557
 C        -0.838844         0.428388         0.762563
 C        -1.191572         2.026920         0.691385
 C        -2.315271         1.339237         1.690679
 C        -1.072154         0.553976         2.276356
 O        -3.606063         1.894957         1.982259
 C        -4.543180         1.297515         0.875456
 C        -3.523480         0.713805        -0.075385
 C        -2.409033         0.101149         0.717149
 H         0.740616        -0.806343         0.623853
 H        -0.425773         2.646379         1.207464
 H        -1.610343         2.238427        -0.356275
 H        -0.187662         1.174737         2.691279
 H        -1.390151        -0.296981         2.955884
 H        -5.182463         0.571637         1.485692
 H        -5.216759         2.221240         0.613604
 H        -3.939776        -0.063661        -0.769632
 H        -3.127643         1.511106        -0.759978
 H        -2.626603        -0.805530         1.240704
