19
Iteration:   322
 O         0.133261        -0.176051         0.141079
 C        -0.960009         0.370673         0.794133
 C        -1.224806         1.904888         0.794418
 C        -2.327316         1.221006         1.670215
 C        -1.199182         0.438791         2.329176
 O        -3.525059         1.904626         2.054355
 C        -4.380229         1.382971         0.860828
 C        -3.486829         0.733458        -0.182636
 C        -2.485734         0.050121         0.729631
 H        -0.060640        -0.031234        -0.857863
 H        -0.507847         2.388867         1.402973
 H        -1.397052         2.438178        -0.222055
 H        -0.458244         1.033483         2.833275
 H        -1.537070        -0.593809         2.700517
 H        -5.135728         0.629059         1.123973
 H        -4.871817         2.302488         0.343477
 H        -4.017122         0.144808        -1.056873
 H        -2.956751         1.634870        -0.629247
 H        -2.682326        -1.027506         0.932019
