19
Iteration:  4416
 O         0.189030        -0.156461         0.031968
 C        -0.851710         0.461448         0.751114
 C        -1.254931         1.978874         0.666264
 C        -2.291211         1.309124         1.648219
 C        -1.101272         0.517757         2.392872
 O        -3.542019         1.746991         1.990755
 C        -4.332178         1.618070         0.774820
 C        -3.766170         0.390895         0.021745
 C        -2.458038         0.037418         0.775330
 H         0.214465        -0.933245         0.582809
 H        -0.529725         2.659107         1.229093
 H        -1.677763         2.283113        -0.342998
 H        -0.344871         1.167573         2.816324
 H        -1.539079        -0.368620         2.940216
 H        -5.381442         1.590763         1.102451
 H        -4.264939         2.650376         0.227319
 H        -4.428218        -0.396435        -0.095311
 H        -3.624739         0.664315        -1.080765
 H        -2.766730        -0.728898         1.520249
