19
Iteration:  3076
 O         0.132288        -0.232221         0.156885
 C        -0.914373         0.402414         0.833950
 C        -1.152674         1.879197         0.690245
 C        -2.275855         1.313916         1.641956
 C        -1.066329         0.495473         2.379659
 O        -3.544623         1.933587         1.865957
 C        -4.457366         1.246970         1.028633
 C        -3.592051         0.722104        -0.217681
 C        -2.518918         0.175041         0.684380
 H        -0.027680        -1.138708         0.014228
 H        -0.398606         2.551032         1.105477
 H        -1.588536         2.135233        -0.240371
 H        -0.221002         1.151105         2.846028
 H        -1.346301        -0.389950         2.962053
 H        -5.093075         0.490129         1.650671
 H        -5.157246         2.061654         0.946943
 H        -4.092675        -0.031504        -0.808841
 H        -3.554429         1.698228        -0.792578
 H        -2.850261        -0.763452         1.085459
