19
Iteration:  3647charge 0 multiplicity 1
 O         0.203021        -0.204030         0.205924
 C        -0.973203         0.334222         0.812233
 C        -1.258464         1.950928         0.632826
 C        -2.280534         1.261066         1.655089
 C        -1.047555         0.539375         2.358642
 O        -3.555789         1.912080         1.984876
 C        -4.372626         1.433969         0.941772
 C        -3.630993         0.624896        -0.172629
 C        -2.507492         0.090150         0.691353
 H        -0.052658        -0.926115        -0.462613
 H        -0.412841         2.396196         1.169690
 H        -1.551912         2.222947        -0.379729
 H        -0.247838         1.108102         2.740274
 H        -1.248115        -0.358198         2.883909
 H        -5.223425         0.854567         1.345227
 H        -4.905820         2.290485         0.519051
 H        -4.215499        -0.320605        -0.396753
 H        -3.497717         1.179962        -1.153395
 H        -2.807722        -0.783585         1.289381
