19
Iteration:  1811
 O         0.076544        -0.240060         0.005030
 C        -0.923797         0.411104         0.764337
 C        -1.236341         1.893795         0.631082
 C        -2.310194         1.280510         1.713955
 C        -1.116350         0.497591         2.463709
 O        -3.535793         1.840025         2.022967
 C        -4.432966         1.484207         0.939923
 C        -3.543608         0.680966        -0.217764
 C        -2.459133         0.038079         0.717634
 H         0.829754        -0.148813         0.625185
 H        -0.760432         2.525049         1.380882
 H        -1.496530         2.320561        -0.365641
 H        -0.387616         1.224900         3.014455
 H        -1.212729        -0.462500         2.957061
 H        -5.016995         0.663357         1.323600
 H        -4.846028         2.333386         0.411240
 H        -4.159071        -0.187411        -0.588712
 H        -3.164176         1.296219        -1.007748
 H        -2.837176        -0.800757         1.273747
