19
Iteration:  3367charge 0 multiplicity 1
 O         0.153983        -0.245350         0.051798
 C        -0.899654         0.289190         0.823721
 C        -1.208904         2.033226         0.660646
 C        -2.229057         1.312379         1.664868
 C        -1.158542         0.436650         2.415436
 O        -3.571151         1.937317         1.973087
 C        -4.486280         1.342020         0.984140
 C        -3.600858         0.685584        -0.225261
 C        -2.429461         0.111232         0.712242
 H         0.502869        -0.904271         0.614186
 H        -0.399809         2.679917         1.114983
 H        -1.569192         2.235193        -0.343692
 H        -0.413309         1.052332         3.011628
 H        -1.552437        -0.495641         2.888763
 H        -5.091841         0.597469         1.528852
 H        -4.977131         2.230823         0.528566
 H        -3.989635        -0.073055        -0.828709
 H        -3.335760         1.519319        -0.947821
 H        -3.007500        -0.633164         1.233649
