19
Iteration:   215charge 0 multiplicity 1
 O         0.245547        -0.030629         0.016200
 C        -0.919517         0.376042         0.823422
 C        -1.392374         1.818115         0.834694
 C        -2.373398         1.047528         1.755900
 C        -1.163656         0.421494         2.351181
 O        -3.577955         1.742838         2.076766
 C        -4.211706         1.821787         0.750683
 C        -3.634976         0.696665        -0.227944
 C        -2.483403        -0.102688         0.684729
 H         0.979888         0.019091         0.697283
 H        -0.808859         2.442697         1.455184
 H        -1.768530         2.253014        -0.208511
 H        -0.463005         0.885388         2.999332
 H        -1.413856        -0.587324         2.833637
 H        -5.274513         1.688818         1.011248
 H        -3.988444         2.787699         0.323177
 H        -4.520030        -0.013700        -0.454465
 H        -3.208489         1.177362        -1.158440
 H        -2.731992        -1.200404         0.973500
