19
Iteration:  3696
 O         0.008017        -0.288397         0.130115
 C        -0.929334         0.431191         0.776238
 C        -1.261186         1.950142         0.682279
 C        -2.300301         1.341156         1.810673
 C        -1.036531         0.628106         2.314371
 O        -3.624120         1.674449         2.071816
 C        -4.258480         1.538660         0.720808
 C        -3.554622         0.506463        -0.120559
 C        -2.450749         0.140330         0.781392
 H        -0.148781        -0.437408        -0.814076
 H        -0.521555         2.648277         1.031944
 H        -1.801718         2.124668        -0.232919
 H        -0.214674         1.373364         2.598198
 H        -1.061591        -0.185615         3.136250
 H        -5.332861         1.424509         0.934908
 H        -4.299862         2.563647         0.348287
 H        -4.161408        -0.363994        -0.338476
 H        -3.169453         0.875941        -1.161280
 H        -2.604146        -0.840452         1.328379
