19
Iteration:   891
 O        -0.059158        -0.241884         0.041497
 C        -0.933773         0.469550         0.795686
 C        -1.268883         1.979675         0.775646
 C        -2.262720         1.272184         1.728008
 C        -1.110771         0.467804         2.418765
 O        -3.590741         1.727917         2.046260
 C        -4.298922         1.578017         0.806016
 C        -3.566123         0.536940        -0.170091
 C        -2.336977         0.075567         0.637587
 H         0.774145         0.255898         0.163215
 H        -0.571147         2.675145         1.345981
 H        -1.654703         2.359860        -0.119050
 H        -0.418601         1.153555         2.970016
 H        -1.158137        -0.526711         2.928876
 H        -5.325233         1.319234         1.090881
 H        -4.293502         2.617907         0.419293
 H        -4.220351        -0.420811        -0.339710
 H        -3.484528         0.977850        -1.164065
 H        -2.582834        -0.953426         1.033361
