19
Iteration:  2390
 O         0.183430        -0.241983         0.165387
 C        -0.946996         0.367873         0.862335
 C        -1.122724         1.840686         0.705370
 C        -2.303051         1.269370         1.684868
 C        -1.130119         0.447228         2.351532
 O        -3.461337         1.889184         1.880933
 C        -4.521855         1.378817         1.048778
 C        -3.636519         0.725119        -0.257266
 C        -2.532964         0.188273         0.661265
 H         0.228085         0.235910        -0.701516
 H        -0.403798         2.410219         1.248980
 H        -1.454837         2.065669        -0.260422
 H        -0.516289         1.050265         3.081058
 H        -1.183721        -0.437780         2.836268
 H        -4.970717         0.495154         1.569680
 H        -5.295271         2.197954         0.859856
 H        -4.197073        -0.048574        -0.726822
 H        -3.262077         1.654143        -0.857214
 H        -2.826187        -0.787892         1.158957
