19
Iteration:  1733charge 0 multiplicity 1
 O         0.052272        -0.359403         0.109204
 C        -0.875009         0.448222         0.811448
 C        -1.184115         1.966563         0.719794
 C        -2.254305         1.302879         1.588539
 C        -1.186982         0.548889         2.362020
 O        -3.494584         1.803388         1.944100
 C        -4.445357         1.306701         1.039585
 C        -3.593216         0.739772        -0.150860
 C        -2.460328         0.136689         0.652868
 H         0.753683         0.253841         0.016608
 H        -0.468057         2.687200         1.243001
 H        -1.496496         2.402686        -0.201379
 H        -0.421512         0.911022         3.014062
 H        -1.731945        -0.213233         2.979337
 H        -5.152934         0.513308         1.284101
 H        -5.159844         2.038091         0.702178
 H        -4.063050        -0.012701        -0.853557
 H        -3.125270         1.506250        -0.827434
 H        -2.729417        -0.794380         1.140103
