19
Iteration:  1591
 O         0.099747        -0.186100         0.028594
 C        -0.948360         0.410838         0.809319
 C        -1.363677         1.902738         0.692926
 C        -2.316099         1.202459         1.746041
 C        -1.161376         0.556004         2.423586
 O        -3.515651         1.642234         2.053401
 C        -4.192265         1.645254         0.812498
 C        -3.658839         0.573158        -0.225402
 C        -2.475454         0.038059         0.769659
 H         0.738906         0.496330        -0.023961
 H        -0.615192         2.633207         1.098808
 H        -1.736854         2.079402        -0.281863
 H        -0.297637         1.162356         2.807989
 H        -1.263209        -0.276661         3.264727
 H        -5.342730         1.834944         1.079504
 H        -3.989018         2.708259         0.377126
 H        -4.312976        -0.275717        -0.427374
 H        -3.306778         1.082260        -1.151177
 H        -2.497242        -0.900847         1.235465
