19
Iteration:  2290
 O         0.178794        -0.168381         0.154691
 C        -0.950156         0.395143         0.813612
 C        -1.301141         1.915119         0.636813
 C        -2.298426         1.239814         1.685040
 C        -1.189566         0.481382         2.385654
 O        -3.488168         1.700057         2.097105
 C        -4.326099         1.644598         0.853966
 C        -3.609451         0.664204        -0.159614
 C        -2.503537         0.036941         0.716571
 H         0.055445        -0.342987        -0.748268
 H        -0.575878         2.644454         0.922731
 H        -1.565265         2.133195        -0.393139
 H        -0.270409         0.999087         2.950132
 H        -1.415497        -0.462527         2.812431
 H        -5.355444         1.322289         1.124733
 H        -4.364406         2.685104         0.354095
 H        -4.198796        -0.188311        -0.590474
 H        -3.141311         0.933350        -1.207899
 H        -2.739701        -0.959410         1.210485
