19
Iteration:  3118charge 0 multiplicity 1
 O        -0.011767        -0.283373         0.063202
 C        -0.908638         0.451504         0.783465
 C        -1.227964         1.951682         0.660075
 C        -2.256395         1.306856         1.661453
 C        -1.121154         0.564363         2.446500
 O        -3.531430         1.778436         2.003719
 C        -4.407194         1.404062         0.958150
 C        -3.553144         0.604432        -0.205520
 C        -2.395234         0.174481         0.690427
 H         0.323370        -1.054471         0.565346
 H        -0.553302         2.642405         1.236754
 H        -1.521935         2.263023        -0.311301
 H        -0.422807         1.220715         2.984374
 H        -1.404769        -0.334888         2.945609
 H        -5.334036         1.046547         1.232007
 H        -4.860971         2.250714         0.334585
 H        -4.035012        -0.260254        -0.666821
 H        -3.104660         1.352345        -0.987085
 H        -2.623531        -0.736160         1.291130
