19
Iteration:  4796
 O         0.168360        -0.217230         0.191544
 C        -0.991922         0.403893         0.714066
 C        -1.252558         1.896281         0.579495
 C        -2.300067         1.258869         1.622568
 C        -1.155142         0.631358         2.315981
 O        -3.466261         1.794754         2.009691
 C        -4.317270         1.605960         0.894678
 C        -3.683214         0.423549        -0.034873
 C        -2.484020         0.003929         0.783683
 H         0.605121         0.492115        -0.247965
 H        -0.404106         2.556054         1.006894
 H        -1.712288         2.243150        -0.348106
 H        -0.331535         1.292518         2.681154
 H        -1.539207        -0.330737         2.798835
 H        -5.306698         1.435090         1.322210
 H        -4.334583         2.569485         0.341647
 H        -4.529095        -0.298437         0.054355
 H        -3.603169         0.793574        -1.046255
 H        -2.528502        -0.888872         1.347253
