19
Iteration:   886
 O        -0.035826        -0.253320         0.002111
 C        -0.919960         0.453819         0.798687
 C        -1.244777         1.967594         0.816458
 C        -2.288093         1.253569         1.694965
 C        -1.095219         0.499255         2.438012
 O        -3.630194         1.739500         2.109679
 C        -4.264232         1.583030         0.792013
 C        -3.570093         0.497025        -0.188723
 C        -2.380028         0.104003         0.617223
 H         0.771507         0.259219         0.153911
 H        -0.601808         2.614102         1.416159
 H        -1.605984         2.489934        -0.155443
 H        -0.375160         1.192308         2.869149
 H        -1.293238        -0.459253         2.900234
 H        -5.318125         1.402856         1.063082
 H        -4.268265         2.547601         0.248271
 H        -4.143695        -0.431715        -0.206602
 H        -3.483248         0.951204        -1.196286
 H        -2.548857        -0.854579         1.128689
