19
Iteration:  2180charge 0 multiplicity 1
 O         0.179205        -0.182836         0.190983
 C        -0.988408         0.360049         0.736312
 C        -1.327213         1.896707         0.720082
 C        -2.273803         1.215823         1.707138
 C        -1.071528         0.478131         2.249242
 O        -3.595363         1.724808         2.074953
 C        -4.307576         1.657527         0.795554
 C        -3.592411         0.654632        -0.129716
 C        -2.497466         0.016813         0.779348
 H         0.346734         0.001007        -0.813398
 H        -0.609733         2.516736         1.200850
 H        -1.856400         2.336279        -0.089521
 H        -0.188331         1.066381         2.766963
 H        -1.216170        -0.368920         2.929233
 H        -5.335861         1.393163         1.065227
 H        -4.418596         2.683231         0.282133
 H        -4.177667        -0.132596        -0.480791
 H        -3.057764         1.279055        -0.878666
 H        -2.792041        -1.011490         1.111146
