19
Iteration:   992
 O         0.017984        -0.364060         0.113350
 C        -0.949007         0.440439         0.761826
 C        -1.153201         1.980697         0.796554
 C        -2.262396         1.293927         1.739239
 C        -1.070700         0.488466         2.360704
 O        -3.562080         1.917362         1.926621
 C        -4.435894         1.220155         0.956836
 C        -3.590572         0.742732        -0.250427
 C        -2.456367         0.179505         0.661291
 H         0.785403         0.163645         0.365920
 H        -0.357354         2.429347         1.289612
 H        -1.371951         2.459192        -0.194289
 H        -0.335530         1.138334         2.810962
 H        -1.182438        -0.503747         2.993073
 H        -4.961626         0.439342         1.531671
 H        -5.168207         1.958979         0.618602
 H        -4.180698        -0.000877        -0.701815
 H        -3.373174         1.480443        -1.090662
 H        -2.800887        -0.770962         1.054270
