19
Iteration:  2913
 O         0.156505        -0.061695         0.161883
 C        -0.908772         0.437474         0.741395
 C        -1.326754         1.888978         0.692199
 C        -2.291656         1.186327         1.765594
 C        -1.068810         0.500049         2.337379
 O        -3.441820         1.791098         2.051056
 C        -4.351283         1.674862         0.758570
 C        -3.688256         0.457372        -0.086093
 C        -2.526718         0.000143         0.681799
 H         0.040643        -0.965024        -0.280486
 H        -0.540131         2.485432         1.228135
 H        -1.829507         2.291021        -0.186117
 H        -0.281859         1.160499         2.881723
 H        -1.316614        -0.411368         2.871344
 H        -5.410668         1.655429         0.970242
 H        -4.215038         2.600335         0.130029
 H        -4.376913        -0.328855        -0.192105
 H        -3.470757         0.845426        -1.110514
 H        -2.744482        -0.942769         1.230315
