19
Iteration:  4910charge 0 multiplicity 1
 O         0.069500        -0.285831         0.059120
 C        -0.921158         0.426979         0.728294
 C        -1.215621         2.007288         0.646359
 C        -2.316575         1.255873         1.613755
 C        -1.072567         0.553776         2.393364
 O        -3.488122         1.899342         2.023055
 C        -4.407688         1.524567         0.920332
 C        -3.655766         0.428165        -0.087196
 C        -2.429754         0.069585         0.717331
 H         0.859699        -0.436327         0.617874
 H        -0.556958         2.569167         1.245034
 H        -1.653854         2.379873        -0.301902
 H        -0.358759         1.231636         2.830192
 H        -1.311083        -0.312758         2.942455
 H        -5.262356         0.963584         1.450851
 H        -4.786190         2.432814         0.235617
 H        -4.412015        -0.287144        -0.265369
 H        -3.525593         0.910114        -1.101793
 H        -2.727632        -0.663408         1.471987
