19
Iteration:  2340charge 0 multiplicity 1
 O         0.027967        -0.340410         0.253619
 C        -0.879695         0.486872         0.809821
 C        -1.271938         1.989751         0.724393
 C        -2.248364         1.250048         1.691332
 C        -1.019529         0.456434         2.319550
 O        -3.499157         1.792285         2.036449
 C        -4.385007         1.405554         0.901081
 C        -3.651120         0.699040        -0.260425
 C        -2.433260         0.181670         0.615931
 H        -0.073131        -0.302832        -0.753249
 H        -0.585516         2.742633         1.205544
 H        -1.823924         2.367753        -0.183965
 H        -0.291085         1.012244         2.965403
 H        -1.402862        -0.531042         2.900939
 H        -5.255937         0.854257         1.275041
 H        -4.707808         2.306141         0.458997
 H        -4.289258        -0.166154        -0.637293
 H        -3.313564         1.338672        -1.035939
 H        -2.708888        -0.689018         1.185238
