19
Iteration:  2291
 O         0.183334        -0.172706         0.153745
 C        -0.947289         0.392009         0.806780
 C        -1.299140         1.919463         0.634193
 C        -2.299167         1.246777         1.679410
 C        -1.193598         0.483751         2.382564
 O        -3.491161         1.699122         2.104182
 C        -4.320254         1.635653         0.848403
 C        -3.611183         0.658598        -0.156270
 C        -2.515928         0.039643         0.720616
 H         0.041039        -0.353013        -0.750537
 H        -0.565466         2.665960         0.949372
 H        -1.551377         2.135527        -0.412918
 H        -0.257667         1.020530         3.003765
 H        -1.398793        -0.477442         2.840756
 H        -5.361826         1.322053         1.141576
 H        -4.359312         2.690336         0.357258
 H        -4.171089        -0.156089        -0.605515
 H        -3.129155         0.988831        -1.186881
 H        -2.744652        -0.973389         1.195415
