19
Iteration:  4185
 O         0.133007        -0.299246         0.107815
 C        -0.907805         0.394429         0.781233
 C        -1.175488         1.949463         0.646763
 C        -2.275144         1.384887         1.629805
 C        -1.107178         0.710359         2.337970
 O        -3.538776         1.918587         1.974025
 C        -4.404493         1.244545         0.941153
 C        -3.604051         0.616809        -0.163838
 C        -2.505798         0.040348         0.813775
 H        -0.326922        -1.179607        -0.121794
 H        -0.472551         2.654971         1.281290
 H        -1.434147         2.323151        -0.396856
 H        -0.402316         1.442027         2.859182
 H        -1.407303        -0.305631         2.834569
 H        -4.880166         0.403284         1.395105
 H        -5.277134         1.968417         0.835936
 H        -4.198576        -0.077838        -0.657611
 H        -3.215752         1.411585        -0.849959
 H        -2.790671        -0.834380         1.299526
