19
Iteration:  4600
 O         0.103403        -0.375952         0.270207
 C        -0.946053         0.493322         0.713733
 C        -1.184730         1.989566         0.562599
 C        -2.194111         1.350738         1.682517
 C        -1.117372         0.598525         2.330722
 O        -3.540732         1.841837         1.974034
 C        -4.475395         1.301834         0.989323
 C        -3.563662         0.609372        -0.117486
 C        -2.449891         0.194324         0.692806
 H        -0.239389        -0.869635        -0.508099
 H        -0.301953         2.490361         0.980446
 H        -1.594400         2.447797        -0.359026
 H        -0.234694         1.067712         2.741119
 H        -1.441000        -0.290491         2.893264
 H        -5.077029         0.691516         1.690759
 H        -5.079554         2.196022         0.585838
 H        -4.007951        -0.269529        -0.547140
 H        -3.822462         1.225613        -1.161245
 H        -2.686952        -0.793117         1.166260
