19
Iteration:  1385charge 0 multiplicity 1
 O         0.009186        -0.334993         0.088011
 C        -0.875203         0.404056         0.822381
 C        -1.274202         1.901939         0.750306
 C        -2.345218         1.280763         1.690664
 C        -1.123202         0.545112         2.366020
 O        -3.533807         1.873845         1.981421
 C        -4.376822         1.398970         0.945507
 C        -3.526500         0.669009        -0.159230
 C        -2.400091         0.174269         0.619205
 H         0.851548         0.235668         0.013576
 H        -0.675907         2.688822         1.362801
 H        -1.540671         2.155377        -0.245627
 H        -0.431875         1.117920         2.966195
 H        -1.288750        -0.512605         2.874922
 H        -5.011599         0.613717         1.270381
 H        -5.089464         2.125814         0.613312
 H        -4.202351        -0.066403        -0.623623
 H        -3.279290         1.295439        -1.006383
 H        -2.550292        -0.966707         0.878916
