19
Iteration:  1988
 O         0.019877        -0.224442         0.016255
 C        -0.935762         0.367681         0.813380
 C        -1.283486         1.873417         0.667720
 C        -2.349077         1.225871         1.770294
 C        -1.067534         0.555754         2.421784
 O        -3.508539         1.731705         2.112607
 C        -4.338428         1.538806         0.798623
 C        -3.514363         0.660932        -0.213807
 C        -2.469807         0.089879         0.703118
 H         0.900088         0.041850         0.351364
 H        -0.570133         2.680606         1.008700
 H        -1.735401         2.258484        -0.317205
 H        -0.425439         1.327917         2.983474
 H        -1.367747        -0.276342         3.083205
 H        -5.381585         1.256742         1.005695
 H        -4.533400         2.518727         0.391687
 H        -4.194632        -0.188189        -0.434946
 H        -3.303598         1.157850        -1.169125
 H        -2.734108        -0.853022         1.136959
