19
Iteration:  4852charge 0 multiplicity 1
 O         0.097162        -0.250004         0.170900
 C        -0.963487         0.436165         0.753975
 C        -1.371165         1.915848         0.594399
 C        -2.317551         1.243502         1.684258
 C        -1.105853         0.686606         2.305719
 O        -3.437164         1.845064         2.072222
 C        -4.335820         1.490261         0.875505
 C        -3.591650         0.488528        -0.141331
 C        -2.379338         0.011448         0.779167
 H        -0.477758        -0.845507        -0.329062
 H        -0.636099         2.699886         0.993809
 H        -1.705717         2.371413        -0.332835
 H        -0.238620         1.246399         2.738127
 H        -1.301221        -0.223959         2.945686
 H        -5.264961         1.160586         1.311364
 H        -4.525294         2.425435         0.321047
 H        -4.374075        -0.174079        -0.439815
 H        -3.296681         1.190571        -0.997261
 H        -2.617299        -0.843314         1.318918
