19
Iteration:  2197
 O         0.238782        -0.231363         0.109688
 C        -0.913834         0.411072         0.731976
 C        -1.424928         1.920881         0.732234
 C        -2.345822         1.158197         1.700558
 C        -1.107581         0.511918         2.411979
 O        -3.531725         1.732226         2.081102
 C        -4.255056         1.712426         0.818294
 C        -3.611563         0.593853        -0.149179
 C        -2.524204         0.003972         0.719966
 H         0.178099         0.300931        -0.762480
 H        -0.705277         2.638412         1.221931
 H        -1.667680         2.304182        -0.290750
 H        -0.486300         1.179954         2.902381
 H        -1.272082        -0.544644         2.794100
 H        -5.327995         1.601798         1.039225
 H        -4.091880         2.690037         0.435995
 H        -4.535974        -0.067055        -0.546442
 H        -3.140416         0.779302        -1.122198
 H        -2.727636        -0.856440         1.328856
