19
Iteration:  3216charge 0 multiplicity 1
 O         0.154131        -0.103293         0.031136
 C        -0.946670         0.398770         0.690073
 C        -1.314041         1.915283         0.750419
 C        -2.352731         1.194726         1.717352
 C        -1.085833         0.576007         2.380832
 O        -3.613684         1.689514         2.033256
 C        -4.174161         1.746878         0.746862
 C        -3.710457         0.462347        -0.086626
 C        -2.419064         0.004932         0.843437
 H         0.123119        -1.047582         0.157413
 H        -0.582755         2.644773         1.300696
 H        -1.531612         2.395812        -0.220529
 H        -0.238502         1.087247         2.842429
 H        -1.278837        -0.282224         2.954585
 H        -5.232688         1.690631         0.804282
 H        -4.049348         2.789078         0.269309
 H        -4.529994        -0.270103        -0.243445
 H        -3.302866         0.783443        -1.141783
 H        -2.654268        -0.960129         1.372176
