19
Iteration:  4539charge 0 multiplicity 1
 O         0.170264        -0.226940         0.158718
 C        -0.922370         0.440971         0.741883
 C        -1.185370         1.919177         0.617288
 C        -2.239870         1.336326         1.655014
 C        -1.078402         0.502397         2.387120
 O        -3.533587         1.982668         1.928965
 C        -4.438678         1.333570         0.937481
 C        -3.673911         0.550522        -0.112801
 C        -2.488532         0.107209         0.778112
 H        -0.246882        -0.929814        -0.361387
 H        -0.324974         2.570813         0.913058
 H        -1.610353         2.402207        -0.285142
 H        -0.231795         1.001336         2.952728
 H        -1.375010        -0.444864         2.906455
 H        -5.116044         0.739145         1.618985
 H        -5.091558         2.020350         0.423708
 H        -4.311908        -0.301917        -0.432202
 H        -3.403964         1.125905        -0.930831
 H        -2.804664        -0.746730         1.375895
