19
Iteration:  1789
 O         0.100018        -0.291001         0.064834
 C        -0.895911         0.433828         0.800803
 C        -1.317250         1.955856         0.747778
 C        -2.310862         1.306725         1.682423
 C        -1.153332         0.458220         2.322410
 O        -3.467851         1.879275         1.968676
 C        -4.444786         1.381889         0.918177
 C        -3.612144         0.665986        -0.113731
 C        -2.443978         0.101896         0.647954
 H         0.884117        -0.139568         0.649675
 H        -0.350344         2.394287         1.130120
 H        -1.741298         2.377858        -0.178943
 H        -0.409499         1.169437         2.853454
 H        -1.350973        -0.497906         2.840002
 H        -4.956595         0.618303         1.481933
 H        -4.728012         2.338901         0.502365
 H        -4.210526        -0.116875        -0.683523
 H        -3.166551         1.419697        -0.745070
 H        -2.615017        -0.830801         1.170684
