19
Iteration:   924charge 0 multiplicity 1
 O         0.195932        -0.249270         0.100905
 C        -0.928734         0.333069         0.750866
 C        -1.306964         1.895669         0.681017
 C        -2.348257         1.295506         1.701748
 C        -1.094996         0.483153         2.302748
 O        -3.575606         1.829961         2.113932
 C        -4.410325         1.489525         0.921153
 C        -3.537099         0.687034        -0.216414
 C        -2.495661         0.047074         0.700889
 H         1.061842         0.256056         0.315300
 H        -0.651823         2.603659         1.288365
 H        -1.576931         2.313105        -0.247542
 H        -0.451970         1.209404         2.814242
 H        -1.186850        -0.485603         2.895598
 H        -5.287027         0.878476         1.113127
 H        -4.709360         2.479075         0.539820
 H        -4.224225        -0.047118        -0.814370
 H        -3.147986         1.405725        -0.943053
 H        -2.952381        -0.884810         1.132885
