19
Iteration:  4408
 O         0.220230        -0.132147         0.044819
 C        -0.831238         0.474414         0.682474
 C        -1.236882         1.927510         0.645613
 C        -2.275835         1.282061         1.646540
 C        -1.165028         0.536670         2.409906
 O        -3.558548         1.760224         2.027358
 C        -4.359781         1.679219         0.766329
 C        -3.741646         0.382368         0.001085
 C        -2.497132         0.033818         0.812196
 H         0.231470        -1.019499         0.351726
 H        -0.377918         2.669970         0.912489
 H        -1.730597         2.404432        -0.274585
 H        -0.385937         1.079525         3.081738
 H        -1.336868        -0.466714         3.010486
 H        -5.465181         1.405107         1.011665
 H        -4.167992         2.674981         0.279912
 H        -4.495398        -0.474364         0.081449
 H        -3.510332         0.534507        -0.960205
 H        -2.717149        -0.845383         1.408804
