19
Iteration:   714
 O         0.136058        -0.203462         0.029515
 C        -0.943762         0.328338         0.784938
 C        -1.173833         1.866205         0.697424
 C        -2.240068         1.335713         1.686128
 C        -1.193248         0.415438         2.420558
 O        -3.570937         1.928275         1.929873
 C        -4.457261         1.251381         0.956798
 C        -3.518712         0.805041        -0.149760
 C        -2.492904         0.163843         0.716091
 H         0.999014        -0.001511         0.444393
 H        -0.311959         2.459368         0.961417
 H        -1.550492         2.347928        -0.239974
 H        -0.470696         0.946817         3.144971
 H        -1.722138        -0.376435         2.918367
 H        -4.830695         0.400024         1.534455
 H        -5.289594         1.919359         0.637216
 H        -4.126591        -0.081389        -0.567351
 H        -3.255591         1.430274        -1.013937
 H        -2.910098        -0.828764         1.110282
