19
Iteration:   913
 O         0.109409        -0.262004         0.096837
 C        -0.877833         0.485093         0.764805
 C        -1.338563         1.941254         0.666975
 C        -2.277684         1.158911         1.657805
 C        -1.099441         0.467492         2.358863
 O        -3.550614         1.772225         2.067323
 C        -4.353311         1.521745         0.830062
 C        -3.548865         0.685802        -0.152555
 C        -2.540257         0.076430         0.760901
 H         0.898728         0.285840         0.303744
 H        -0.668496         2.734426         1.143927
 H        -1.799131         2.327400        -0.186387
 H        -0.332595         0.956478         2.968157
 H        -1.382685        -0.560770         2.767417
 H        -5.200823         1.011580         1.280921
 H        -4.719485         2.471901         0.394140
 H        -4.167862        -0.088263        -0.765487
 H        -3.026595         1.312014        -0.878138
 H        -2.776836        -0.863524         1.336068
