19
Iteration:   748charge 0 multiplicity 1
 O         0.014024        -0.310503         0.103949
 C        -0.933596         0.461448         0.809370
 C        -1.251106         1.998539         0.841049
 C        -2.260234         1.254675         1.617202
 C        -1.058668         0.469340         2.350955
 O        -3.496618         1.865288         1.942734
 C        -4.457442         1.384627         0.896608
 C        -3.550275         0.701846        -0.121849
 C        -2.438597         0.039159         0.626696
 H         0.814198         0.280373        -0.150590
 H        -0.544031         2.455756         1.556724
 H        -1.565749         2.534933        -0.002385
 H        -0.392470         1.183397         3.008783
 H        -1.545597        -0.323118         2.879871
 H        -5.233355         0.659013         1.212577
 H        -5.041421         2.221412         0.431135
 H        -4.204634        -0.153487        -0.545202
 H        -3.147384         1.294087        -0.899084
 H        -2.683568        -0.949839         1.150349
