19
Iteration:  4369
 O         0.145959        -0.090361         0.160129
 C        -0.933295         0.402827         0.827698
 C        -1.404181         1.921504         0.626387
 C        -2.274798         1.176031         1.645754
 C        -1.001536         0.643426         2.353539
 O        -3.491331         1.722362         2.038061
 C        -4.264640         1.701285         0.781226
 C        -3.665309         0.458197        -0.102068
 C        -2.527164        -0.044225         0.819434
 H        -0.139944        -0.923576        -0.363057
 H        -0.812282         2.695301         1.001033
 H        -1.964607         2.014164        -0.245421
 H        -0.403339         1.413796         2.771163
 H        -1.155188        -0.244739         2.834911
 H        -5.284050         1.611328         1.102557
 H        -4.201708         2.625496         0.175240
 H        -4.478993        -0.253731        -0.396125
 H        -3.271155         0.687482        -1.206352
 H        -2.569026        -1.045851         1.374353
