19
Iteration:  2124
 O         0.155727        -0.323764         0.205901
 C        -0.917059         0.412759         0.714262
 C        -1.120428         2.031879         0.752974
 C        -2.280276         1.267362         1.629988
 C        -1.202918         0.510364         2.334504
 O        -3.562668         1.818415         2.019263
 C        -4.445661         1.410591         0.987914
 C        -3.595042         0.699591        -0.193662
 C        -2.439626         0.092335         0.633733
 H        -0.103472        -0.480600        -0.703425
 H        -0.448330         2.563278         1.381081
 H        -1.357669         2.596004        -0.097295
 H        -0.343972         0.992422         2.744335
 H        -1.528529        -0.468331         2.761004
 H        -5.128254         0.838797         1.608570
 H        -5.058497         2.288121         0.625854
 H        -4.034690        -0.029671        -0.706489
 H        -3.378854         1.356467        -0.989255
 H        -2.753790        -0.872695         1.095090
