19
Iteration:  2220
 O         0.084505        -0.157779         0.148839
 C        -0.914873         0.450759         0.800538
 C        -1.263674         1.886315         0.693563
 C        -2.343005         1.152782         1.741789
 C        -1.116756         0.473711         2.396970
 O        -3.552479         1.673571         2.058112
 C        -4.222482         1.720533         0.752075
 C        -3.661766         0.571156        -0.077952
 C        -2.408112         0.058403         0.641328
 H         0.150759         0.407182        -0.585005
 H        -0.585084         2.677961         1.065758
 H        -1.671666         2.156279        -0.281265
 H        -0.333149         0.989200         2.744909
 H        -1.472995        -0.476851         2.924800
 H        -5.300754         1.747229         0.907293
 H        -3.901979         2.660915         0.354860
 H        -4.491894        -0.312762        -0.150311
 H        -3.838321         0.818840        -1.120852
 H        -2.560381        -0.894460         1.092640
