19
Iteration:  2211charge 0 multiplicity 1
 O         0.107258        -0.157226         0.116390
 C        -0.879639         0.450211         0.829304
 C        -1.290184         1.877659         0.681739
 C        -2.321655         1.149137         1.719311
 C        -1.135398         0.489436         2.393792
 O        -3.536163         1.692555         2.103552
 C        -4.223101         1.780542         0.773788
 C        -3.687405         0.543495        -0.177453
 C        -2.445065         0.006813         0.710206
 H         0.319930         0.202394        -0.702731
 H        -0.706688         2.671378         1.058073
 H        -1.844430         2.169109        -0.147441
 H        -0.526830         1.177476         3.005900
 H        -1.343609        -0.510612         2.902873
 H        -5.258649         1.605542         1.001311
 H        -4.065062         2.754387         0.250700
 H        -4.343446        -0.419976        -0.184921
 H        -3.628184         1.048102        -1.205391
 H        -2.611667        -1.039384         0.978255
