19
Iteration:  3013
 O         0.151454        -0.177296         0.142180
 C        -0.882184         0.414788         0.777062
 C        -1.133535         1.891661         0.670337
 C        -2.336917         1.259814         1.620702
 C        -1.047407         0.463479         2.388646
 O        -3.531498         1.904574         1.935225
 C        -4.486831         1.397818         0.947155
 C        -3.709596         0.700612        -0.094365
 C        -2.497310         0.103448         0.682451
 H         0.378789        -0.995404         0.561534
 H        -0.365010         2.585425         1.036928
 H        -1.454747         2.287413        -0.330231
 H        -0.150960         0.808701         3.007203
 H        -1.418325        -0.467924         2.800777
 H        -5.120116         0.705305         1.334967
 H        -4.902876         2.214955         0.389451
 H        -4.167051        -0.176177        -0.500125
 H        -3.529297         1.359274        -0.883015
 H        -2.727955        -0.927448         1.071213
