19
Iteration:  4426charge 0 multiplicity 1
 O         0.115944        -0.183680         0.077843
 C        -0.963186         0.426555         0.835800
 C        -1.283791         1.959443         0.715051
 C        -2.260544         1.274395         1.648744
 C        -1.051854         0.597877         2.303316
 O        -3.530374         1.770150         1.992115
 C        -4.307701         1.576060         0.817964
 C        -3.756322         0.415450        -0.054922
 C        -2.443852         0.084286         0.743478
 H         0.558975        -0.921320         0.426320
 H        -0.708242         2.753164         1.219742
 H        -1.475103         2.305307        -0.315322
 H        -0.328455         1.147013         2.845991
 H        -1.280547        -0.315842         2.870180
 H        -5.309360         1.503990         1.172906
 H        -4.217176         2.390923         0.046792
 H        -4.365713        -0.426248        -0.017127
 H        -3.609390         0.879078        -1.120606
 H        -2.492859        -0.907597         1.270169
