19
Iteration:  2857
 O         0.060943        -0.178365         0.051058
 C        -0.896845         0.457171         0.773792
 C        -1.292604         1.916274         0.685800
 C        -2.308436         1.173038         1.728357
 C        -1.056070         0.600776         2.335967
 O        -3.631016         1.679869         2.067179
 C        -4.224888         1.658810         0.803976
 C        -3.649375         0.542739        -0.097435
 C        -2.463335         0.003076         0.715462
 H         0.664661        -0.672559         0.612162
 H        -0.569424         2.631105         1.101657
 H        -1.558313         2.358215        -0.269999
 H        -0.231501         1.228462         2.792270
 H        -1.117888        -0.298401         3.013608
 H        -5.318988         1.537441         0.937047
 H        -4.153652         2.691409         0.346212
 H        -4.457897        -0.096904        -0.385470
 H        -3.287428         1.057758        -1.030140
 H        -2.820479        -0.891652         1.272159
