19
Iteration:   268charge 0 multiplicity 1
 O         0.159036        -0.240887         0.118721
 C        -0.933021         0.503066         0.744310
 C        -1.184931         2.044865         0.841600
 C        -2.302762         1.153055         1.629223
 C        -1.209303         0.481892         2.371584
 O        -3.593097         1.622767         2.117884
 C        -4.373153         1.699141         0.917683
 C        -3.600117         0.575855        -0.241350
 C        -2.388771         0.103340         0.523378
 H         0.103998        -1.059338         0.711904
 H        -0.488314         2.540560         1.428792
 H        -1.480302         2.700078        -0.053885
 H        -0.558857         1.139835         2.936375
 H        -1.341948        -0.573349         2.833422
 H        -5.430727         1.458715         1.112671
 H        -4.418409         2.716035         0.344430
 H        -4.232534        -0.300319        -0.740550
 H        -3.339176         1.270699        -1.125582
 H        -2.625988        -0.943634         0.963537
