19
Iteration:    49
 O        -0.026544        -0.409675         0.067253
 C        -0.920374         0.473573         0.826647
 C        -1.072697         2.090524         0.884099
 C        -2.296274         1.331666         1.695500
 C        -1.306649         0.364855         2.381666
 O        -3.533641         1.817122         1.958379
 C        -4.386193         1.175805         0.931890
 C        -3.512947         0.856693        -0.264369
 C        -2.402351         0.280443         0.551163
 H         0.860057        -0.299842         0.583808
 H        -0.372633         2.653876         1.552324
 H        -1.377519         2.405054        -0.135729
 H        -0.411126         0.879648         2.917036
 H        -1.694852        -0.457954         2.991245
 H        -4.689817         0.217611         1.346585
 H        -5.249714         1.834509         0.711495
 H        -4.069310         0.114964        -0.897679
 H        -3.224174         1.800550        -0.865902
 H        -2.708091        -0.752091         0.933237
