19
Iteration:  1250charge 0 multiplicity 1
 O        -0.016951        -0.318809         0.054572
 C        -0.908417         0.443730         0.796733
 C        -1.321770         1.992538         0.773331
 C        -2.267813         1.348703         1.625227
 C        -1.186440         0.539128         2.401979
 O        -3.541236         1.712314         2.071362
 C        -4.328319         1.528089         0.876840
 C        -3.509372         0.572314        -0.178164
 C        -2.347288         0.039719         0.681735
 H         0.746787         0.304089        -0.145366
 H        -0.590228         2.627642         1.220689
 H        -1.540982         2.354340        -0.248691
 H        -0.475138         1.182207         2.968576
 H        -1.612258        -0.353547         2.899367
 H        -5.268484         1.163561         1.164702
 H        -4.614577         2.557688         0.521795
 H        -4.109011        -0.177230        -0.595358
 H        -3.282989         1.203170        -1.027549
 H        -2.556425        -0.941388         1.130677
