19
Iteration:   758charge 0 multiplicity 1
 O         0.036569        -0.367856         0.106942
 C        -0.913378         0.469039         0.707347
 C        -1.229608         2.036538         0.827317
 C        -2.285560         1.273791         1.668962
 C        -1.217792         0.514008         2.353873
 O        -3.544797         1.762856         1.973925
 C        -4.386883         1.467438         0.894746
 C        -3.551854         0.615513        -0.091890
 C        -2.355683         0.121817         0.645470
 H         0.696285         0.265502        -0.275900
 H        -0.480021         2.668917         1.349312
 H        -1.573609         2.586168        -0.063432
 H        -0.441389         1.037745         3.027384
 H        -1.368452        -0.475866         2.729128
 H        -5.184965         0.770013         1.208324
 H        -4.778193         2.449058         0.536809
 H        -4.210557        -0.225953        -0.557909
 H        -3.280569         1.194467        -0.988174
 H        -2.624793        -0.777495         1.303298
