19
Iteration:  3904
 O         0.282157        -0.241356         0.213910
 C        -0.891240         0.411246         0.732867
 C        -1.112780         1.869527         0.583971
 C        -2.250339         1.310214         1.589724
 C        -1.162741         0.507471         2.272121
 O        -3.584655         2.015567         1.985726
 C        -4.527849         1.366665         1.072463
 C        -3.703135         0.580508        -0.149752
 C        -2.520972         0.117585         0.673880
 H         0.684231        -0.509276         1.072768
 H        -0.373385         2.580156         0.944120
 H        -1.439305         2.152942        -0.374415
 H        -0.428130         1.085125         2.740345
 H        -1.357861        -0.482180         2.624822
 H        -5.068380         0.483016         1.602460
 H        -5.412270         1.979859         0.906028
 H        -4.394571        -0.191365        -0.639225
 H        -3.320429         1.238226        -1.017556
 H        -2.681371        -0.872261         1.271505
