19
Iteration:   901charge 0 multiplicity 1
 O        -0.015366        -0.222923         0.099213
 C        -0.935629         0.513652         0.791981
 C        -1.313352         1.989362         0.734065
 C        -2.283368         1.220307         1.776389
 C        -1.110241         0.461655         2.375819
 O        -3.472579         1.684666         1.962304
 C        -4.360740         1.579168         0.813410
 C        -3.575143         0.625918        -0.135464
 C        -2.402076         0.050737         0.726360
 H         0.881076         0.035247         0.051624
 H        -0.498406         2.777726         1.008056
 H        -1.786334         2.252785        -0.180396
 H        -0.390677         0.983357         3.059134
 H        -1.377871        -0.542006         2.736233
 H        -5.312269         1.126286         1.095507
 H        -4.541070         2.579555         0.356358
 H        -4.341257        -0.209408        -0.525957
 H        -3.203260         1.150079        -1.026930
 H        -2.523998        -1.037169         1.087997
