19
Iteration:  4917
 O         0.066310        -0.303339         0.116430
 C        -0.962272         0.483569         0.684392
 C        -1.272845         1.971533         0.675303
 C        -2.289716         1.299088         1.592549
 C        -1.146704         0.544111         2.346549
 O        -3.437326         1.897396         2.011297
 C        -4.368351         1.496518         0.910782
 C        -3.654621         0.468355        -0.090194
 C        -2.427618         0.040378         0.739830
 H         0.958267        -0.155660         0.602187
 H        -0.473746         2.616669         1.177877
 H        -1.635504         2.527714        -0.202331
 H        -0.222531         1.097192         2.737304
 H        -1.420764        -0.417877         2.897001
 H        -5.109569         1.010269         1.454694
 H        -4.753880         2.316945         0.430243
 H        -4.329866        -0.415659        -0.026248
 H        -3.650915         0.885033        -1.171180
 H        -2.624562        -0.812997         1.372520
