19
Iteration:  1915charge 0 multiplicity 1
 O         0.122374        -0.192009         0.024405
 C        -0.892101         0.407271         0.768211
 C        -1.385865         1.893266         0.687952
 C        -2.324084         1.176978         1.684670
 C        -1.136711         0.492861         2.408988
 O        -3.534221         1.735733         2.068544
 C        -4.263121         1.701677         0.777759
 C        -3.630873         0.564134        -0.039714
 C        -2.473416         0.032454         0.756747
 H         0.925850         0.429243         0.201101
 H        -0.704995         2.618122         1.048014
 H        -1.526273         2.271377        -0.289783
 H        -0.385745         1.075295         2.874987
 H        -1.404205        -0.556607         2.878332
 H        -5.400043         1.617090         0.931301
 H        -4.178977         2.717686         0.189541
 H        -4.177712        -0.272616        -0.403778
 H        -3.366692         0.953901        -1.047640
 H        -2.586274        -0.986888         1.232785
