19
Iteration:  2501charge 0 multiplicity 1
 O         0.102161        -0.187352         0.158801
 C        -0.982909         0.443806         0.774065
 C        -1.255273         1.991179         0.717493
 C        -2.324200         1.201574         1.698795
 C        -1.040309         0.417139         2.353721
 O        -3.517920         1.821603         2.047056
 C        -4.367971         1.554338         0.841107
 C        -3.546345         0.577426        -0.203510
 C        -2.485503         0.066142         0.719578
 H        -0.320746        -0.696052        -0.524251
 H        -0.467534         2.633912         1.137038
 H        -1.822544         2.417363        -0.067965
 H        -0.239489         1.116489         2.900428
 H        -1.247767        -0.520205         2.807844
 H        -5.246794         1.118924         1.367239
 H        -4.554121         2.502401         0.329243
 H        -4.188050        -0.228014        -0.494692
 H        -3.228693         1.231934        -1.181319
 H        -2.662512        -0.944113         1.257427
