19
Iteration:  4915charge 0 multiplicity 1
 O         0.068740        -0.299066         0.103278
 C        -0.957118         0.473655         0.690599
 C        -1.258093         1.984596         0.665074
 C        -2.307912         1.281776         1.588452
 C        -1.125490         0.543534         2.366434
 O        -3.448661         1.899143         2.018091
 C        -4.379659         1.509114         0.912411
 C        -3.643351         0.463977        -0.098022
 C        -2.421280         0.050200         0.731154
 H         0.942664        -0.242470         0.592973
 H        -0.474722         2.604496         1.217094
 H        -1.646523         2.492473        -0.216236
 H        -0.243550         1.129064         2.736889
 H        -1.407828        -0.409358         2.926270
 H        -5.131818         0.983731         1.473382
 H        -4.757674         2.323874         0.365251
 H        -4.429201        -0.442384        -0.071639
 H        -3.649940         0.869853        -1.094547
 H        -2.671366        -0.792503         1.480613
