19
Iteration:  4667charge 0 multiplicity 1
 O         0.153810        -0.142281         0.202415
 C        -0.991832         0.303038         0.784151
 C        -1.275684         1.838482         0.535874
 C        -2.247108         1.272227         1.636110
 C        -1.110969         0.564806         2.312392
 O        -3.431463         1.941616         2.018388
 C        -4.407149         1.494302         0.938326
 C        -3.625304         0.533264        -0.152202
 C        -2.560828        -0.034418         0.802288
 H         0.673059         0.575067        -0.244809
 H        -0.489139         2.480524         0.981001
 H        -1.653098         2.085821        -0.432152
 H        -0.300049         1.127292         2.731129
 H        -1.465797        -0.237842         2.961811
 H        -5.169434         0.943496         1.547369
 H        -4.779073         2.500880         0.513011
 H        -4.181825        -0.310674        -0.443361
 H        -3.297503         1.069688        -1.219513
 H        -2.929358        -0.886696         1.427261
