19
Iteration:  4576charge 0 multiplicity 1
 O         0.095601        -0.341927         0.151481
 C        -0.829313         0.404003         0.863096
 C        -1.247109         1.971711         0.627697
 C        -2.222255         1.332634         1.560927
 C        -1.112495         0.643468         2.335229
 O        -3.543677         1.926476         2.000859
 C        -4.386927         1.285304         0.975874
 C        -3.619520         0.666779        -0.137905
 C        -2.452937         0.021245         0.728853
 H        -0.360667        -0.863013        -0.450282
 H        -0.644821         2.831840         0.951580
 H        -1.550266         2.022706        -0.460411
 H        -0.509867         1.401302         2.942308
 H        -1.372797        -0.254376         2.940469
 H        -4.940411         0.470467         1.558212
 H        -5.132391         2.073662         0.564967
 H        -4.310877         0.143672        -0.833324
 H        -3.428695         1.464344        -0.872259
 H        -2.786819        -0.745310         1.413359
