19
Iteration:  1075charge 0 multiplicity 1
 O         0.136401        -0.303870         0.158427
 C        -0.884976         0.427269         0.717180
 C        -1.223627         1.888133         0.719861
 C        -2.291830         1.266208         1.718584
 C        -1.105081         0.508763         2.321087
 O        -3.645246         1.780297         2.016960
 C        -4.410479         1.561201         0.889209
 C        -3.628008         0.609891        -0.096466
 C        -2.421620         0.088149         0.647394
 H         0.929300         0.347703         0.122108
 H        -0.515373         2.574116         1.361387
 H        -1.673879         2.416655        -0.131994
 H        -0.246376         1.225136         2.715142
 H        -1.173227        -0.418669         2.867658
 H        -5.469979         1.273256         1.132380
 H        -4.502747         2.459765         0.214082
 H        -4.369164        -0.157954        -0.532283
 H        -3.263991         1.204483        -0.953478
 H        -2.654758        -0.954541         1.033773
