19
Iteration:  3924charge 0 multiplicity 1
 O         0.242628        -0.311589         0.235902
 C        -0.828100         0.366872         0.818137
 C        -1.189391         1.937268         0.527952
 C        -2.263154         1.355429         1.565447
 C        -1.111635         0.600738         2.351525
 O        -3.489267         1.819515         1.950989
 C        -4.514540         1.277553         1.026580
 C        -3.800148         0.713722        -0.116520
 C        -2.510690         0.168530         0.637109
 H         0.778188        -0.649066         0.909081
 H        -0.455799         2.703124         0.894349
 H        -1.454310         2.248802        -0.465868
 H        -0.337072         1.221170         2.835995
 H        -1.515164        -0.315052         2.798103
 H        -5.198283         0.576703         1.607166
 H        -5.142840         2.178415         0.684441
 H        -4.223228        -0.130529        -0.654061
 H        -3.680275         1.512550        -0.936779
 H        -2.870237        -0.716204         1.244214
