19
Iteration:  3795
 O         0.255636        -0.379173         0.236078
 C        -0.938462         0.418648         0.737162
 C        -1.411828         2.037414         0.615380
 C        -2.313154         1.234722         1.691542
 C        -1.041888         0.644381         2.331571
 O        -3.545547         1.773583         2.069609
 C        -4.327047         1.634297         0.852398
 C        -3.681682         0.493966        -0.142276
 C        -2.454926         0.026053         0.713379
 H         0.476731        -0.094457        -0.721043
 H        -0.766827         2.863529         0.898727
 H        -1.937599         2.220988        -0.280653
 H        -0.302772         1.261512         2.761672
 H        -1.089124        -0.160691         3.075156
 H        -5.313779         1.179245         1.214268
 H        -4.511887         2.551600         0.322556
 H        -4.502560        -0.265807        -0.233492
 H        -3.445852         0.995675        -1.116716
 H        -2.598422        -0.946432         1.242411
