19
Iteration:   404charge 0 multiplicity 1
 O         0.140849        -0.260284         0.133360
 C        -0.883734         0.364808         0.817020
 C        -1.266310         1.943592         0.760248
 C        -2.235783         1.257682         1.669838
 C        -1.170679         0.504751         2.381514
 O        -3.520039         1.801597         2.050800
 C        -4.462596         1.323205         0.907357
 C        -3.580179         0.850082        -0.265980
 C        -2.478658         0.152317         0.573546
 H         0.687158        -0.936146         0.678986
 H        -0.388508         2.570656         1.048260
 H        -1.746162         2.208814        -0.112750
 H        -0.451015         1.178243         2.935362
 H        -1.235056        -0.466084         2.816703
 H        -5.184936         0.523643         1.143098
 H        -5.033434         2.157682         0.647880
 H        -4.178383         0.198179        -0.815612
 H        -3.308222         1.646206        -0.943872
 H        -2.821308        -0.699142         1.164943
