19
Iteration:   489charge 0 multiplicity 1
 O         0.160566        -0.188319         0.199449
 C        -0.917399         0.436177         0.742098
 C        -1.282715         1.962184         0.797504
 C        -2.261857         1.198270         1.710264
 C        -1.091147         0.427415         2.316139
 O        -3.540455         1.735200         1.965910
 C        -4.421258         1.666330         0.848981
 C        -3.653398         0.504567        -0.131703
 C        -2.459800         0.088138         0.677792
 H         0.526272         0.254528        -0.586035
 H        -0.480455         2.610622         1.215531
 H        -1.682109         2.395052        -0.060854
 H        -0.351256         0.991842         2.920088
 H        -1.344045        -0.479411         2.738611
 H        -5.419733         1.338527         1.218398
 H        -4.500971         2.617117         0.373608
 H        -4.423504        -0.233435        -0.520174
 H        -3.212518         1.020460        -0.993687
 H        -2.645642        -0.870884         1.155445
