19
Iteration:  4488charge 0 multiplicity 1
 O         0.100971        -0.188952         0.116819
 C        -0.974012         0.384643         0.728048
 C        -1.167868         1.909235         0.571872
 C        -2.286239         1.285038         1.713231
 C        -1.076913         0.678002         2.401677
 O        -3.521019         1.773195         2.050762
 C        -4.390171         1.482016         0.874413
 C        -3.665910         0.553475        -0.152481
 C        -2.479866         0.073896         0.783966
 H         0.223141        -1.072652         0.379907
 H        -0.455188         2.631948         0.890167
 H        -1.353168         2.114771        -0.486159
 H        -0.264632         1.304859         2.846167
 H        -1.255555        -0.205090         3.001168
 H        -5.262546         0.991080         1.349310
 H        -4.778489         2.459215         0.467145
 H        -4.337386        -0.300784        -0.521156
 H        -3.296218         1.103114        -1.105622
 H        -2.671691        -0.966813         1.085511
