19
Iteration:  1538charge 0 multiplicity 1
 O         0.019464        -0.210971         0.053179
 C        -0.862602         0.485291         0.824542
 C        -1.307544         2.002850         0.799689
 C        -2.278536         1.191999         1.680254
 C        -1.039438         0.424950         2.389432
 O        -3.517096         1.782118         2.032261
 C        -4.294855         1.613083         0.773634
 C        -3.717410         0.464795        -0.169351
 C        -2.499175         0.066707         0.718025
 H         0.869376         0.171693         0.149176
 H        -0.554576         2.680862         1.321978
 H        -1.693821         2.543713        -0.028156
 H        -0.507587         1.267572         2.927877
 H        -1.352781        -0.602567         2.720890
 H        -5.365923         1.432631         1.084333
 H        -3.986627         2.481118         0.135593
 H        -4.234935        -0.445401        -0.485996
 H        -3.390253         1.035973        -0.996084
 H        -2.496627        -0.908291         1.242743
