19
Iteration:  1820
 O         0.011594        -0.211285         0.032800
 C        -0.945313         0.414003         0.861455
 C        -1.222626         1.890170         0.687957
 C        -2.305874         1.251668         1.642935
 C        -1.078638         0.531313         2.414930
 O        -3.532326         1.764349         2.012563
 C        -4.397666         1.469515         0.852204
 C        -3.562193         0.654062        -0.161702
 C        -2.474011         0.121140         0.725852
 H         0.887660        -0.112140         0.455713
 H        -0.247088         2.488758         1.037918
 H        -1.347511         2.321491        -0.314398
 H        -0.355927         1.218370         2.900240
 H        -1.248043        -0.501516         2.911394
 H        -5.165059         0.841365         1.354354
 H        -4.798343         2.445777         0.708205
 H        -4.289255        -0.119856        -0.591091
 H        -3.201211         1.208430        -1.080320
 H        -2.740073        -0.825789         1.238244
