19
Iteration:  3001
 O         0.162235        -0.235148         0.066460
 C        -0.884247         0.457105         0.826129
 C        -1.212767         1.911098         0.629302
 C        -2.283287         1.211640         1.738756
 C        -1.066103         0.484582         2.352391
 O        -3.573719         1.874672         1.940929
 C        -4.504740         1.448061         0.942044
 C        -3.581766         0.662072        -0.172114
 C        -2.501562         0.094160         0.741577
 H         0.373711        -1.054892         0.640355
 H        -0.474840         2.602959         1.089191
 H        -1.583429         2.165888        -0.352826
 H        -0.321032         1.194677         2.938904
 H        -1.243623        -0.495685         2.810392
 H        -5.314163         0.994829         1.456328
 H        -5.026199         2.339395         0.600828
 H        -4.224487         0.080326        -0.769534
 H        -3.093702         1.406114        -0.780585
 H        -2.757435        -0.888608         1.179426
