19
Iteration:  1404
 O         0.060927        -0.286390        -0.000416
 C        -0.903653         0.427205         0.745888
 C        -1.255748         1.982306         0.772057
 C        -2.251011         1.248829         1.727935
 C        -1.146542         0.496592         2.463227
 O        -3.461877         1.901816         1.950440
 C        -4.433069         1.392741         0.883755
 C        -3.585248         0.654488        -0.240092
 C        -2.476672        -0.002241         0.773708
 H         0.905933         0.194761         0.134214
 H        -0.516638         2.521639         1.255116
 H        -1.792733         2.506087        -0.030413
 H        -0.506578         1.221965         2.971837
 H        -1.455649        -0.347040         3.229773
 H        -5.115541         0.587314         1.327687
 H        -4.979966         2.287649         0.417966
 H        -4.161804        -0.010391        -0.798206
 H        -3.103980         1.404712        -0.875604
 H        -2.897283        -0.819373         1.275688
