19
Iteration:  4889charge 0 multiplicity 1
 O         0.081117        -0.236964        -0.004546
 C        -0.882568         0.440540         0.797732
 C        -1.229366         1.831177         0.643860
 C        -2.296185         1.340427         1.677838
 C        -1.026045         0.651523         2.378300
 O        -3.551100         1.785936         1.994653
 C        -4.436059         1.470928         0.832021
 C        -3.653877         0.615865        -0.085939
 C        -2.466455         0.074192         0.893834
 H         0.542252        -1.056419         0.378878
 H        -0.430441         2.457517         0.941052
 H        -1.704167         2.009644        -0.344100
 H        -0.161264         1.197806         2.652549
 H        -1.284508        -0.196048         2.935864
 H        -5.386315         1.072033         1.349288
 H        -4.632551         2.509976         0.251624
 H        -4.156714        -0.292587        -0.401770
 H        -3.470158         1.196260        -0.973973
 H        -2.576092        -0.973939         1.349345
