19
Iteration:  2706charge 0 multiplicity 1
 O         0.215806        -0.383969         0.193741
 C        -0.883203         0.417891         0.746073
 C        -1.148068         1.987024         0.646992
 C        -2.339833         1.345777         1.624337
 C        -1.203436         0.489874         2.381428
 O        -3.546714         1.852746         2.075350
 C        -4.433245         1.298284         0.956138
 C        -3.660196         0.741017        -0.175655
 C        -2.429954         0.150019         0.618876
 H        -0.054540        -0.272403        -0.708276
 H        -0.197964         2.519171         1.118811
 H        -1.467936         2.427607        -0.324254
 H        -0.573824         1.179089         3.012418
 H        -1.455266        -0.450894         2.757749
 H        -4.972759         0.536047         1.513463
 H        -5.113716         2.260053         0.743054
 H        -4.210676         0.064227        -0.762829
 H        -3.208393         1.473666        -0.857177
 H        -2.932919        -0.601702         1.262363
