19
Iteration:   700charge 0 multiplicity 1
 O         0.093837        -0.264526         0.076071
 C        -0.908017         0.387222         0.802489
 C        -1.141241         1.988563         0.734958
 C        -2.279683         1.367805         1.570901
 C        -1.284958         0.486969         2.370304
 O        -3.476039         1.890092         1.981592
 C        -4.442271         1.270869         1.015135
 C        -3.626747         0.671288        -0.179182
 C        -2.401556         0.093536         0.646950
 H         0.883512        -0.165592         0.602301
 H        -0.568575         2.609238         1.401233
 H        -1.331270         2.378385        -0.344786
 H        -0.439872         0.770646         2.919216
 H        -1.767519        -0.423738         2.780628
 H        -5.039206         0.482941         1.484398
 H        -5.141751         2.042421         0.714567
 H        -4.138482         0.050797        -0.924681
 H        -3.294598         1.692238        -0.648585
 H        -2.696440        -0.841371         1.180411
