19
Iteration:   647
 O         0.105313        -0.339353         0.164032
 C        -0.880124         0.394045         0.761448
 C        -1.231658         2.001601         0.696553
 C        -2.304051         1.287555         1.598480
 C        -1.119759         0.492803         2.281012
 O        -3.576700         1.741393         2.073694
 C        -4.446248         1.412201         0.956584
 C        -3.503359         0.707523        -0.193547
 C        -2.489913         0.172992         0.700853
 H         0.967950         0.000727         0.408550
 H        -0.490240         2.694256         0.944839
 H        -1.721854         2.566748        -0.193981
 H        -0.449981         1.127891         2.941516
 H        -1.358354        -0.504477         2.757367
 H        -5.241641         0.729704         1.259668
 H        -4.940028         2.318229         0.561000
 H        -4.013760        -0.043292        -0.830914
 H        -3.308002         1.626317        -0.829507
 H        -2.865773        -0.784656         1.196580
