19
Iteration:  4413
 O         0.201816        -0.142850         0.029771
 C        -0.825300         0.466375         0.717283
 C        -1.244927         1.974203         0.655134
 C        -2.294404         1.309401         1.645431
 C        -1.125333         0.509619         2.412636
 O        -3.546086         1.748539         2.000380
 C        -4.350308         1.647421         0.766848
 C        -3.757247         0.384257         0.032924
 C        -2.469670         0.030548         0.787581
 H         0.162932        -0.999773         0.591564
 H        -0.514854         2.596747         1.086741
 H        -1.690333         2.302512        -0.248397
 H        -0.379676         1.110886         2.878744
 H        -1.456746        -0.326717         2.942159
 H        -5.358372         1.525678         1.042693
 H        -4.232659         2.626639         0.323946
 H        -4.477594        -0.450393        -0.064597
 H        -3.575728         0.616461        -1.134197
 H        -2.819240        -0.752786         1.512090
