19
Iteration:  3922charge 0 multiplicity 1
 O         0.252010        -0.307051         0.237804
 C        -0.815600         0.375454         0.798456
 C        -1.177826         1.930494         0.518453
 C        -2.294971         1.367671         1.576921
 C        -1.100551         0.575189         2.346753
 O        -3.496559         1.831831         1.951900
 C        -4.523616         1.272534         1.027947
 C        -3.811282         0.713363        -0.132395
 C        -2.512340         0.162615         0.661306
 H         0.841262        -0.659364         0.917391
 H        -0.425016         2.668426         0.923779
 H        -1.464974         2.264041        -0.518243
 H        -0.301673         1.207456         2.900878
 H        -1.589371        -0.302679         2.856391
 H        -5.089653         0.566024         1.606622
 H        -5.061654         2.181706         0.646785
 H        -4.276613        -0.088295        -0.606723
 H        -3.703370         1.487791        -0.904017
 H        -2.840323        -0.691165         1.201511
