19
Iteration:   894charge 0 multiplicity 1
 O        -0.057103        -0.230560         0.065914
 C        -0.941505         0.480374         0.793070
 C        -1.275253         1.991816         0.767030
 C        -2.263299         1.269077         1.754401
 C        -1.115179         0.463393         2.399763
 O        -3.550556         1.712880         2.006490
 C        -4.323290         1.580973         0.811971
 C        -3.576779         0.552864        -0.156731
 C        -2.333853         0.054853         0.667799
 H         0.797468         0.168417         0.112089
 H        -0.603805         2.653197         1.200703
 H        -1.717738         2.316167        -0.181710
 H        -0.458877         1.066515         3.012429
 H        -1.148475        -0.565220         2.929976
 H        -5.347401         1.240717         1.079547
 H        -4.330211         2.622684         0.464066
 H        -4.183287        -0.230751        -0.405835
 H        -3.438735         1.005430        -1.150854
 H        -2.566735        -0.921905         0.967674
