19
Iteration:  3693charge 0 multiplicity 1
 O         0.018278        -0.303293         0.112192
 C        -0.912404         0.419491         0.807997
 C        -1.260695         1.981863         0.653617
 C        -2.332468         1.351141         1.788805
 C        -1.041216         0.614185         2.346675
 O        -3.609976         1.663471         2.058270
 C        -4.260071         1.540193         0.759490
 C        -3.524732         0.516673        -0.108822
 C        -2.465010         0.132788         0.779572
 H        -0.271715        -0.413170        -0.781507
 H        -0.528602         2.680775         1.034225
 H        -1.833026         2.197332        -0.253562
 H        -0.282676         1.394965         2.518525
 H        -1.153349        -0.128193         3.106427
 H        -5.310309         1.344605         0.950163
 H        -4.307777         2.559318         0.289780
 H        -4.147555        -0.322599        -0.375212
 H        -3.175582         0.912213        -1.214577
 H        -2.628575        -0.873333         1.316112
