19
Iteration:  1379charge 0 multiplicity 1
 O        -0.011348        -0.323814         0.146572
 C        -0.897172         0.439032         0.798791
 C        -1.218810         1.926098         0.710090
 C        -2.281819         1.317099         1.704289
 C        -1.110569         0.468483         2.363483
 O        -3.563769         1.864167         2.019837
 C        -4.437434         1.387889         0.939268
 C        -3.558316         0.659900        -0.178511
 C        -2.347660         0.143069         0.593963
 H         0.750827         0.204660         0.058034
 H        -0.529341         2.659370         1.127728
 H        -1.577541         2.243379        -0.307006
 H        -0.386090         1.127517         2.915200
 H        -1.358975        -0.372351         2.934697
 H        -5.055969         0.509909         1.347932
 H        -5.021524         2.229965         0.464717
 H        -4.258588        -0.124176        -0.656096
 H        -3.236943         1.447170        -0.903418
 H        -2.570649        -0.874371         0.816397
