19
Iteration:   839charge 0 multiplicity 1
 O         0.039993        -0.098484         0.059554
 C        -0.932205         0.452036         0.822306
 C        -1.401260         1.866442         0.731682
 C        -2.334875         1.172720         1.796698
 C        -1.080894         0.446055         2.352755
 O        -3.536870         1.766124         2.079699
 C        -4.178167         1.697840         0.709799
 C        -3.603915         0.487893        -0.151967
 C        -2.436189         0.022102         0.691046
 H         0.845671         0.333550         0.285148
 H        -0.725778         2.613074         1.086274
 H        -1.768484         2.071137        -0.267093
 H        -0.342876         1.050993         2.849259
 H        -1.472093        -0.486782         2.886044
 H        -5.266328         1.604569         0.873970
 H        -4.003599         2.727924         0.465539
 H        -4.258818        -0.271871         0.009282
 H        -3.529812         0.716614        -1.206562
 H        -2.585578        -0.987301         0.997798
