19
Iteration:  2038charge 0 multiplicity 1
 O         0.121926        -0.318995         0.139096
 C        -0.886697         0.429026         0.784445
 C        -1.162909         1.919304         0.783051
 C        -2.301526         1.365217         1.706087
 C        -1.132116         0.434580         2.348363
 O        -3.558652         1.818428         2.000504
 C        -4.405105         1.424111         0.921096
 C        -3.699206         0.642932        -0.183499
 C        -2.441068         0.218312         0.613654
 H         0.878794         0.212442        -0.302257
 H        -0.320004         2.537496         1.120709
 H        -1.443700         2.182287        -0.228594
 H        -0.282121         0.899534         2.895443
 H        -1.397209        -0.592340         2.747007
 H        -5.184254         0.780782         1.385517
 H        -5.087790         2.117685         0.322731
 H        -4.309392        -0.259880        -0.508266
 H        -3.468172         1.360843        -0.987097
 H        -2.720329        -0.633463         1.280155
