19
Iteration:  1580
 O         0.065953        -0.177721         0.018488
 C        -0.887687         0.452162         0.786186
 C        -1.221715         1.899271         0.717312
 C        -2.335444         1.163872         1.718136
 C        -1.134148         0.539813         2.424315
 O        -3.606687         1.691207         2.064845
 C        -4.255757         1.708804         0.791040
 C        -3.649302         0.499278        -0.087254
 C        -2.437964         0.007401         0.729279
 H         0.812877         0.461684        -0.176055
 H        -0.671029         2.778254         1.103607
 H        -1.578802         2.181248        -0.250317
 H        -0.497044         1.273209         2.959722
 H        -1.331014        -0.548196         2.760897
 H        -5.418796         1.600925         0.945059
 H        -3.879021         2.618414         0.212374
 H        -4.417675        -0.167020        -0.467436
 H        -3.226516         0.967103        -1.003708
 H        -2.746569        -0.842405         1.273452
