19
Iteration:  2236charge 0 multiplicity 1
 O         0.161568        -0.189443         0.137563
 C        -0.945873         0.404031         0.742688
 C        -1.266348         1.971360         0.768078
 C        -2.290364         1.280658         1.690636
 C        -1.102690         0.428477         2.319268
 O        -3.609746         1.637788         2.067718
 C        -4.193555         1.786299         0.755656
 C        -3.725507         0.478124        -0.071279
 C        -2.508920         0.063139         0.726042
 H         0.527333         0.201362        -0.647820
 H        -0.508138         2.557089         1.298325
 H        -1.610008         2.501667        -0.155081
 H        -0.426289         1.211636         2.963138
 H        -1.322933        -0.557549         2.685325
 H        -5.285342         1.688560         0.905009
 H        -3.906496         2.712945         0.147288
 H        -4.360045        -0.385907        -0.003272
 H        -3.529592         0.704781        -1.182978
 H        -2.675718        -0.963323         1.174608
