19
Iteration:  2127charge 0 multiplicity 1
 O         0.162856        -0.337283         0.192756
 C        -0.919193         0.424853         0.721494
 C        -1.143043         2.023404         0.768251
 C        -2.292685         1.281834         1.621104
 C        -1.226401         0.516264         2.346583
 O        -3.550698         1.799833         2.018144
 C        -4.452109         1.440294         0.980280
 C        -3.565701         0.683826        -0.166852
 C        -2.405684         0.085226         0.612195
 H        -0.080814        -0.522315        -0.797736
 H        -0.393716         2.540374         1.430970
 H        -1.418499         2.618300        -0.158868
 H        -0.275174         1.034730         2.801676
 H        -1.517291        -0.390456         2.702545
 H        -5.192316         0.858825         1.575345
 H        -5.082201         2.309568         0.666031
 H        -4.178869        -0.116175        -0.716356
 H        -3.446809         1.417807        -0.976433
 H        -2.808184        -0.824592         1.140532
