19
Iteration:  3732
 O         0.223205        -0.192614         0.175078
 C        -0.885165         0.419950         0.757372
 C        -1.414202         1.916259         0.730297
 C        -2.289547         1.202690         1.654092
 C        -1.134911         0.544104         2.309249
 O        -3.513193         1.800339         1.981329
 C        -4.250646         1.696852         0.776020
 C        -3.733962         0.450974        -0.001747
 C        -2.446140         0.000948         0.775626
 H         0.186425         0.031578        -0.789290
 H        -0.912072         2.858470         1.086491
 H        -1.750578         1.990059        -0.312946
 H        -0.405767         1.311955         2.694988
 H        -1.348876        -0.455853         2.903350
 H        -5.294345         1.498432         1.099463
 H        -4.083150         2.602978         0.178175
 H        -4.501230        -0.369283        -0.107602
 H        -3.474101         0.703529        -0.961306
 H        -2.578915        -0.881909         1.337034
