19
Iteration:  1305
 O         0.074966        -0.221242         0.093962
 C        -0.916527         0.425724         0.745338
 C        -1.301985         1.964840         0.762795
 C        -2.297634         1.228260         1.638707
 C        -1.164483         0.455812         2.328627
 O        -3.487264         1.859432         1.949863
 C        -4.355554         1.423234         0.909202
 C        -3.557922         0.684444        -0.132490
 C        -2.459080         0.046841         0.748522
 H         0.957411        -0.063784         0.580351
 H        -0.628650         2.641005         1.179218
 H        -1.725132         2.383919        -0.190468
 H        -0.339857         1.002054         2.870399
 H        -1.519625        -0.503832         2.889634
 H        -5.034264         0.672033         1.234053
 H        -4.887667         2.324059         0.501557
 H        -4.197577        -0.063687        -0.432580
 H        -3.198368         1.262930        -0.982025
 H        -2.855561        -0.817076         1.267728
