19
Iteration:  2617charge 0 multiplicity 1
 O         0.100103        -0.187810         0.163715
 C        -0.983822         0.434312         0.785575
 C        -1.284913         1.904257         0.676498
 C        -2.308803         1.239071         1.665401
 C        -1.112030         0.499412         2.389583
 O        -3.485764         1.672036         2.082502
 C        -4.304125         1.685419         0.833228
 C        -3.642016         0.538838        -0.221479
 C        -2.471714         0.079198         0.717284
 H         0.489160         0.165388        -0.595015
 H        -0.449234         2.538848         1.163537
 H        -1.618007         2.220761        -0.355101
 H        -0.351024         1.099841         2.843303
 H        -1.485156        -0.352806         2.988861
 H        -5.194183         1.298033         1.197840
 H        -4.277750         2.722887         0.386255
 H        -4.335767        -0.314133        -0.282340
 H        -3.396107         0.880535        -1.171995
 H        -2.587743        -0.781318         1.372267
