19
Iteration:  3558
 O         0.033331        -0.380429         0.114679
 C        -0.855815         0.433833         0.748123
 C        -1.192805         1.987986         0.696944
 C        -2.295934         1.355632         1.673556
 C        -1.076045         0.548121         2.281468
 O        -3.626741         1.893139         1.960629
 C        -4.525135         1.309275         0.912319
 C        -3.551969         0.737480        -0.097314
 C        -2.372601         0.114723         0.734200
 H         0.728311        -0.831264         0.735958
 H        -0.353272         2.576264         1.136847
 H        -1.549934         2.191361        -0.318767
 H        -0.241381         1.034428         2.642945
 H        -1.357974        -0.281685         2.899276
 H        -5.109479         0.509946         1.371997
 H        -5.261522         2.048839         0.696884
 H        -3.897327        -0.129853        -0.767876
 H        -3.060189         1.447805        -0.634193
 H        -2.630899        -0.809524         1.267620
