19
Iteration:   904charge 0 multiplicity 1
 O         0.010446        -0.230974         0.102877
 C        -0.922367         0.524478         0.790785
 C        -1.318580         1.987468         0.721974
 C        -2.280011         1.185808         1.755806
 C        -1.100945         0.471104         2.375871
 O        -3.472609         1.690946         1.972705
 C        -4.360471         1.572065         0.808396
 C        -3.580101         0.643729        -0.141287
 C        -2.449570         0.050309         0.746861
 H         0.940697         0.066844         0.083128
 H        -0.588939         2.707145         0.945775
 H        -1.816475         2.264189        -0.181805
 H        -0.369993         0.952911         3.006930
 H        -1.506068        -0.591755         2.672434
 H        -5.295607         1.099120         1.165138
 H        -4.637503         2.523820         0.313998
 H        -4.243750        -0.091448        -0.495338
 H        -3.098652         1.215179        -0.942862
 H        -2.511705        -0.931866         1.158797
