19
Iteration:   559
 O         0.090293        -0.212276         0.101183
 C        -0.982798         0.480346         0.785720
 C        -1.302031         1.931196         0.824121
 C        -2.337461         1.232765         1.707478
 C        -1.093010         0.517601         2.327904
 O        -3.560015         1.636415         2.113092
 C        -4.207407         1.673387         0.750246
 C        -3.636297         0.496256        -0.201087
 C        -2.481998         0.118223         0.719907
 H         0.665723         0.374703        -0.400314
 H        -0.583239         2.585681         1.248387
 H        -1.579496         2.205648        -0.276877
 H        -0.392776         1.130810         2.882096
 H        -1.202178        -0.468969         2.939874
 H        -5.266899         1.591523         0.990733
 H        -4.074172         2.657633         0.280166
 H        -4.202829        -0.403619        -0.281953
 H        -3.388935         0.848535        -1.271862
 H        -2.638180        -0.915535         1.131745
