19
Iteration:   403charge 0 multiplicity 1
 O         0.136995        -0.256930         0.140015
 C        -0.891937         0.366961         0.813307
 C        -1.256694         1.947530         0.756504
 C        -2.236837         1.257589         1.671567
 C        -1.174232         0.501323         2.379507
 O        -3.508341         1.798924         2.047910
 C        -4.468836         1.322181         0.904921
 C        -3.585766         0.838300        -0.257701
 C        -2.476276         0.155558         0.563463
 H         0.729117        -0.912341         0.690973
 H        -0.381157         2.555521         1.048992
 H        -1.705182         2.233829        -0.088787
 H        -0.473980         1.155658         2.968937
 H        -1.234625        -0.431867         2.816803
 H        -5.188476         0.528467         1.159343
 H        -4.999181         2.161303         0.640197
 H        -4.215244         0.195518        -0.841886
 H        -3.328736         1.659133        -0.907754
 H        -2.836323        -0.690662         1.159134
