19
Iteration:  4281charge 0 multiplicity 1
 O         0.210713        -0.132326         0.055120
 C        -0.868460         0.376518         0.819456
 C        -1.260166         1.884763         0.646295
 C        -2.333567         1.320227         1.604716
 C        -1.084610         0.488061         2.367839
 O        -3.517169         1.969003         1.974094
 C        -4.451420         1.442557         0.941490
 C        -3.603652         0.514049        -0.148140
 C        -2.531241         0.060943         0.811106
 H         0.312716        -1.134337         0.315242
 H        -0.651708         2.664839         1.014245
 H        -1.677358         2.078613        -0.311249
 H        -0.334285         1.057107         2.900142
 H        -1.377049        -0.408500         2.799982
 H        -5.341045         1.011520         1.439776
 H        -4.993499         2.320479         0.473586
 H        -4.211695        -0.408297        -0.385668
 H        -3.114748         1.114073        -1.000758
 H        -2.768259        -0.915990         1.403314
