19
Iteration:  3220charge 0 multiplicity 1
 O         0.141238        -0.124507         0.014086
 C        -0.961787         0.446290         0.740619
 C        -1.303100         1.924915         0.749193
 C        -2.315690         1.189942         1.722296
 C        -1.091609         0.567534         2.362760
 O        -3.593451         1.686103         2.037128
 C        -4.182504         1.722965         0.723429
 C        -3.666792         0.469759        -0.086757
 C        -2.475815         0.048207         0.832671
 H         0.117112        -1.100667         0.200353
 H        -0.645890         2.516157         1.282066
 H        -1.572616         2.440556        -0.177744
 H        -0.257859         1.123406         2.889507
 H        -1.223100        -0.377553         2.973124
 H        -5.319578         1.493967         0.855140
 H        -4.009952         2.722093         0.234392
 H        -4.389899        -0.376770        -0.278080
 H        -3.418237         0.779880        -1.080308
 H        -2.741663        -0.841341         1.383677
