19
Iteration:  3977
 O         0.056440        -0.228802         0.056689
 C        -0.887754         0.408167         0.829718
 C        -1.292924         1.912992         0.673367
 C        -2.242075         1.370285         1.679789
 C        -0.995901         0.559743         2.343226
 O        -3.586810         1.837837         1.923479
 C        -4.465293         1.378394         0.877055
 C        -3.544440         0.545836        -0.153504
 C        -2.423329         0.142919         0.875053
 H        -0.031692        -1.111340         0.345523
 H        -0.481274         2.691053         0.860782
 H        -1.721388         2.236220        -0.275745
 H        -0.181631         1.270160         2.744085
 H        -1.316187        -0.229149         3.080982
 H        -5.284021         0.940106         1.289086
 H        -5.043093         2.229018         0.500144
 H        -4.010032        -0.286943        -0.567222
 H        -3.185892         1.169922        -0.981378
 H        -2.700609        -0.671318         1.454463
