19
Iteration:   111charge 0 multiplicity 1
 O         0.233333        -0.142377         0.137050
 C        -0.932636         0.380776         0.788323
 C        -1.216864         1.780321         0.758567
 C        -2.342023         1.212578         1.712865
 C        -1.268018         0.308062         2.413858
 O        -3.508940         1.839466         1.960733
 C        -4.469234         1.472143         0.934977
 C        -3.529291         0.823185        -0.253809
 C        -2.511143         0.128386         0.607003
 H         1.045588         0.476962         0.341484
 H        -0.352485         2.356858         1.204617
 H        -1.426811         2.231961        -0.097026
 H        -0.459363         0.758685         3.032222
 H        -1.523343        -0.675071         2.611217
 H        -5.183456         0.803109         1.442556
 H        -5.043490         2.424682         0.784501
 H        -4.088537         0.184825        -0.897701
 H        -3.123222         1.599801        -0.894660
 H        -2.869773        -0.785050         0.997928
