19
Iteration:   946charge 0 multiplicity 1
 O         0.131992        -0.228017         0.165082
 C        -0.905497         0.406986         0.743217
 C        -1.137862         1.872984         0.678104
 C        -2.248994         1.221955         1.623007
 C        -1.134785         0.521193         2.429073
 O        -3.512021         1.776028         2.003332
 C        -4.470366         1.435920         0.949636
 C        -3.700581         0.735697        -0.160408
 C        -2.486025         0.113524         0.585038
 H         0.886202         0.223937         0.505927
 H        -0.400606         2.546603         1.234011
 H        -1.538239         2.283646        -0.218754
 H        -0.341300         1.097896         2.905274
 H        -1.416428        -0.388140         3.043808
 H        -5.182394         0.710854         1.368821
 H        -5.020953         2.338339         0.635706
 H        -4.248999        -0.082461        -0.736158
 H        -3.439950         1.448956        -0.972284
 H        -2.870343        -0.853179         0.997460
