19
Iteration:  1451charge 0 multiplicity 1
 O         0.105856        -0.351291         0.065482
 C        -0.883690         0.464784         0.762416
 C        -1.270033         2.011092         0.773840
 C        -2.247082         1.299305         1.668969
 C        -1.128021         0.523912         2.464010
 O        -3.488929         1.782056         2.062850
 C        -4.406158         1.498731         0.830023
 C        -3.698185         0.568202        -0.230355
 C        -2.459895         0.122485         0.655838
 H         0.866967         0.188686         0.146890
 H        -0.597601         2.772503         1.329073
 H        -1.738719         2.230404        -0.138204
 H        -0.282187         1.011755         3.029905
 H        -1.457819        -0.511116         2.869563
 H        -5.240754         0.955164         1.310937
 H        -4.757740         2.434704         0.392228
 H        -4.223172        -0.317509        -0.619990
 H        -3.262342         1.180672        -0.971801
 H        -2.724642        -0.905616         1.133049
