19
Iteration:  3203charge 0 multiplicity 1
 O         0.215212        -0.041025         0.060989
 C        -0.941246         0.400258         0.775501
 C        -1.347695         1.851408         0.667962
 C        -2.287200         1.211406         1.725168
 C        -1.097908         0.562279         2.415154
 O        -3.625318         1.704173         2.078342
 C        -4.238877         1.829688         0.714132
 C        -3.720175         0.502373        -0.043481
 C        -2.445464        -0.149045         0.712254
 H         0.297911        -1.045300        -0.050706
 H        -0.554490         2.599854         1.112262
 H        -1.858016         2.164526        -0.255142
 H        -0.458808         1.299756         2.816938
 H        -1.267991        -0.330620         3.034594
 H        -5.238967         2.028160         0.928432
 H        -3.614187         2.605836         0.229840
 H        -4.556983        -0.182772        -0.061010
 H        -3.456039         0.708049        -1.146589
 H        -2.454085        -1.158339         1.198557
