19
Iteration:   638
 O         0.090276        -0.277397         0.110419
 C        -0.968897         0.426836         0.743127
 C        -1.212057         1.943101         0.617744
 C        -2.293051         1.227537         1.665919
 C        -1.217846         0.539470         2.346303
 O        -3.544883         1.731038         2.042676
 C        -4.399055         1.422952         0.927228
 C        -3.503351         0.760208        -0.142521
 C        -2.437662         0.096619         0.716432
 H         0.891738         0.138545         0.421208
 H        -0.571196         2.497840         1.333005
 H        -1.655848         2.444451        -0.304243
 H        -0.396063         1.180793         2.897820
 H        -1.519072        -0.420907         2.780990
 H        -5.187210         0.733994         1.293750
 H        -4.815124         2.419190         0.594851
 H        -3.999810        -0.045018        -0.755821
 H        -3.002457         1.410391        -0.846760
 H        -2.756085        -0.827323         1.275621
