19
Iteration:   406charge 0 multiplicity 1
 O         0.151111        -0.268818         0.120496
 C        -0.870033         0.363553         0.822980
 C        -1.279545         1.933723         0.768452
 C        -2.241088         1.258181         1.666675
 C        -1.158090         0.511797         2.385163
 O        -3.545217         1.805126         2.054699
 C        -4.446221         1.326066         0.913806
 C        -3.566501         0.874212        -0.278591
 C        -2.480435         0.147172         0.598122
 H         0.564354        -0.949519         0.637292
 H        -0.429620         2.602135         1.054825
 H        -1.832702         2.184932        -0.207878
 H        -0.414973         1.203245         2.855328
 H        -1.258387        -0.548340         2.837031
 H        -5.164167         0.510654         1.135299
 H        -5.126461         2.191275         0.655959
 H        -4.132100         0.154632        -0.799755
 H        -3.253549         1.629299        -1.019444
 H        -2.804775        -0.734515         1.162660
