19
Iteration:  3124charge 0 multiplicity 1
 O         0.008640        -0.275016         0.069125
 C        -0.895329         0.480124         0.819983
 C        -1.235720         1.980195         0.683625
 C        -2.254051         1.255585         1.641270
 C        -1.078368         0.578111         2.470868
 O        -3.499285         1.754025         2.039360
 C        -4.440002         1.461270         0.830130
 C        -3.602714         0.583341        -0.188991
 C        -2.429024         0.154856         0.680888
 H         0.486754        -1.072286         0.479599
 H        -0.438947         2.635601         1.059910
 H        -1.534866         2.245987        -0.385991
 H        -0.325152         1.130159         3.055934
 H        -1.409447        -0.426860         2.898372
 H        -5.449783         1.024712         1.350066
 H        -4.823782         2.430037         0.442373
 H        -4.197382        -0.233801        -0.634433
 H        -3.273161         1.162366        -1.001654
 H        -2.625723        -0.681295         1.377195
