19
Iteration:  3655
 O         0.191219        -0.252318         0.161104
 C        -0.973406         0.417164         0.779945
 C        -1.260365         1.930881         0.630927
 C        -2.282035         1.210023         1.663727
 C        -1.148178         0.581983         2.387451
 O        -3.524333         1.868114         2.008093
 C        -4.362557         1.464669         0.893805
 C        -3.585087         0.597862        -0.133530
 C        -2.461267         0.081044         0.729539
 H        -0.317823        -0.812877        -0.530454
 H        -0.444894         2.644577         1.003358
 H        -1.750295         2.254976        -0.306367
 H        -0.386038         1.269475         2.745195
 H        -1.252100        -0.266080         3.119129
 H        -5.276246         0.955675         1.332315
 H        -4.764234         2.364011         0.386515
 H        -4.277030        -0.211700        -0.481802
 H        -3.326502         1.230905        -0.860988
 H        -2.656192        -0.884972         1.102859
