19
Iteration:  3493
 O         0.239445        -0.214312         0.111189
 C        -0.851997         0.426434         0.743501
 C        -1.303843         1.847292         0.682770
 C        -2.327536         1.236741         1.732057
 C        -1.109342         0.519976         2.350816
 O        -3.571288         1.784222         2.019660
 C        -4.323686         1.694657         0.820536
 C        -3.666462         0.475941        -0.145413
 C        -2.535439         0.030356         0.826691
 H         0.706423         0.246343        -0.588401
 H        -0.630937         2.625498         1.043801
 H        -1.762176         2.169621        -0.267394
 H        -0.419903         1.045727         2.909579
 H        -1.407298        -0.365541         2.881687
 H        -5.362903         1.547947         1.058959
 H        -4.353941         2.603301         0.272781
 H        -4.546551        -0.179419        -0.439443
 H        -3.266052         1.023401        -0.922217
 H        -2.887093        -0.822140         1.464939
