19
Iteration:  2872
 O         0.238653        -0.132235        -0.003323
 C        -0.992358         0.358544         0.733972
 C        -1.344854         1.878031         0.675238
 C        -2.307303         1.235843         1.711399
 C        -1.083844         0.578333         2.432688
 O        -3.547699         1.644268         2.108273
 C        -4.298470         1.733693         0.736049
 C        -3.687050         0.561413        -0.145123
 C        -2.492474         0.053145         0.819928
 H         0.417817        -0.900078         0.517021
 H        -0.600253         2.612245         1.194456
 H        -1.850580         2.197187        -0.295419
 H        -0.430635         1.359988         2.801397
 H        -1.305224        -0.283468         2.947736
 H        -5.321319         1.626442         1.036971
 H        -3.852496         2.712631         0.348682
 H        -4.292457        -0.347705        -0.250632
 H        -3.394286         0.870087        -1.133002
 H        -2.613697        -1.031086         1.215948
