19
Iteration:  1832
 O        -0.018826        -0.247207         0.072965
 C        -0.915805         0.412178         0.783693
 C        -1.151999         1.938624         0.745160
 C        -2.248060         1.309600         1.721296
 C        -1.112977         0.548134         2.313348
 O        -3.528545         1.727755         2.040348
 C        -4.411277         1.484339         0.864828
 C        -3.618445         0.623162        -0.180248
 C        -2.445874         0.091192         0.726911
 H         0.870322         0.005112         0.269227
 H        -0.383116         2.689150         1.214919
 H        -1.727115         2.118151        -0.175019
 H        -0.277105         1.149382         2.861949
 H        -1.467657        -0.271622         2.987649
 H        -5.334276         0.970729         1.087591
 H        -4.587029         2.347294         0.223005
 H        -4.156072        -0.283212        -0.626807
 H        -3.257864         1.331684        -0.940942
 H        -2.737837        -0.838691         1.219728
