19
Iteration:  3670
 O         0.051298        -0.299044         0.116400
 C        -0.824127         0.454269         0.749625
 C        -1.326344         1.930683         0.647287
 C        -2.275639         1.296316         1.669988
 C        -1.120912         0.692379         2.439771
 O        -3.509410         1.754900         2.042591
 C        -4.393226         1.539734         0.834142
 C        -3.566624         0.574348        -0.122879
 C        -2.408370        -0.019543         0.754508
 H        -0.225930        -0.714613        -0.729078
 H        -0.680567         2.633856         1.201808
 H        -1.709452         2.133859        -0.357954
 H        -0.525330         1.232592         3.174656
 H        -1.423319        -0.252338         2.763005
 H        -5.364014         1.184941         1.188367
 H        -4.698906         2.547637         0.471661
 H        -4.136299        -0.162898        -0.730869
 H        -3.014128         1.161997        -1.022026
 H        -2.567872        -0.881460         1.466991
