19
Iteration:  3805charge 0 multiplicity 1
 O         0.078193        -0.370801         0.237944
 C        -0.908113         0.504197         0.763005
 C        -1.358280         1.941925         0.660962
 C        -2.345599         1.258902         1.686553
 C        -1.007686         0.672535         2.330723
 O        -3.556492         1.803046         2.068125
 C        -4.335493         1.530234         0.835988
 C        -3.584490         0.507029        -0.118103
 C        -2.375885         0.061625         0.684163
 H         0.179487        -0.331723        -0.786259
 H        -0.831006         2.837653         0.928031
 H        -1.877168         2.095766        -0.249935
 H        -0.300525         1.362771         2.589291
 H        -1.248132        -0.195225         2.823159
 H        -5.197460         1.044726         1.348611
 H        -4.478665         2.503989         0.434957
 H        -4.261632        -0.291814        -0.477427
 H        -3.467214         1.119280        -1.100764
 H        -2.539459        -0.985521         1.121233
