19
Iteration:   422
 O         0.154752        -0.260600         0.097420
 C        -0.927448         0.435447         0.778270
 C        -1.255689         1.918128         0.692925
 C        -2.392703         1.233476         1.747695
 C        -1.048300         0.497959         2.359901
 O        -3.609883         1.795995         2.028919
 C        -4.409399         1.407843         0.891418
 C        -3.471609         0.804094        -0.240921
 C        -2.450768         0.149504         0.698490
 H         0.020211        -1.267173         0.299036
 H        -0.718776         2.606554         1.342474
 H        -1.431247         2.333573        -0.282168
 H        -0.325797         0.998865         3.012028
 H        -1.372534        -0.308922         3.013828
 H        -4.891206         0.486707         1.274504
 H        -5.156352         2.208551         0.680625
 H        -4.133801         0.085025        -0.916668
 H        -3.080730         1.619758        -0.860692
 H        -2.818242        -0.882938         0.914122
