19
Iteration:  3150
 O         0.218619        -0.154630         0.113377
 C        -0.960938         0.403692         0.705697
 C        -1.293607         1.869434         0.690868
 C        -2.310068         1.216639         1.677121
 C        -1.081052         0.531401         2.308464
 O        -3.615603         1.795311         2.050708
 C        -4.324547         1.630111         0.847119
 C        -3.665291         0.509073        -0.089318
 C        -2.483219         0.086484         0.738575
 H         0.648200        -0.908906         0.623262
 H        -0.512001         2.514296         1.240320
 H        -1.550257         2.318043        -0.260873
 H        -0.292589         1.126313         2.731129
 H        -1.234598        -0.350936         2.880943
 H        -5.331092         1.462060         1.136010
 H        -4.219442         2.655758         0.219307
 H        -4.381508        -0.299848        -0.303939
 H        -3.397932         0.913575        -1.154664
 H        -2.620215        -0.842953         1.353291
