19
Iteration:  3759charge 0 multiplicity 1
 O         0.267557        -0.082984         0.270475
 C        -0.960399         0.376705         0.761124
 C        -1.210399         1.905389         0.468936
 C        -2.281564         1.227352         1.695995
 C        -1.134758         0.505759         2.394826
 O        -3.552469         1.784200         2.059983
 C        -4.284359         1.706560         0.852083
 C        -3.808263         0.445231        -0.053305
 C        -2.528486        -0.045745         0.713477
 H         0.229339         0.325350        -0.647073
 H        -0.400942         2.580786         0.705060
 H        -1.499645         1.977849        -0.601855
 H        -0.411514         1.222080         2.604469
 H        -1.351112        -0.364342         2.860530
 H        -5.298820         1.480266         1.155181
 H        -4.116552         2.707299         0.351459
 H        -4.572148        -0.290501        -0.107443
 H        -3.536812         0.548686        -1.198987
 H        -2.645642        -1.064476         1.243413
