19
Iteration:  2567charge 0 multiplicity 1
 O         0.156847        -0.163981         0.196366
 C        -0.946131         0.392228         0.824957
 C        -1.363920         1.931439         0.660443
 C        -2.273711         1.230442         1.755134
 C        -1.061250         0.487652         2.322647
 O        -3.552438         1.665951         2.081593
 C        -4.215401         1.674807         0.792034
 C        -3.631036         0.611892        -0.116440
 C        -2.513107         0.029046         0.636733
 H        -0.050967        -0.399766        -0.759157
 H        -0.797797         2.745829         1.042398
 H        -1.944090         2.232415        -0.167063
 H        -0.329344         1.299304         2.772873
 H        -1.235977        -0.464156         2.786202
 H        -5.336198         1.553118         0.928206
 H        -4.004524         2.667014         0.353136
 H        -4.349870        -0.197973        -0.239026
 H        -3.489682         0.922347        -1.242956
 H        -2.735517        -0.887674         1.218603
