19
Iteration:  3147
 O         0.202001        -0.172270         0.103280
 C        -0.940154         0.408614         0.724006
 C        -1.259042         1.874156         0.693707
 C        -2.302244         1.247831         1.697673
 C        -1.086544         0.530398         2.293678
 O        -3.604146         1.786007         2.054166
 C        -4.325937         1.605370         0.839994
 C        -3.679819         0.540738        -0.123680
 C        -2.478810         0.077627         0.760413
 H         0.591891        -0.846018         0.624706
 H        -0.561341         2.550564         1.272467
 H        -1.599523         2.326329        -0.283194
 H        -0.369498         1.200599         2.704641
 H        -1.243739        -0.378999         2.944478
 H        -5.423646         1.459513         1.074475
 H        -4.389630         2.584522         0.231901
 H        -4.362422        -0.313731        -0.254874
 H        -3.405344         0.878557        -1.126275
 H        -2.596466        -0.897857         1.295294
