19
Iteration:  1575charge 0 multiplicity 1
 O         0.063930        -0.175023         0.020178
 C        -0.885668         0.452743         0.792558
 C        -1.221485         1.918429         0.710465
 C        -2.309835         1.167705         1.683116
 C        -1.117491         0.517463         2.398854
 O        -3.634078         1.706449         2.095099
 C        -4.275878         1.721678         0.733900
 C        -3.618902         0.494593        -0.037768
 C        -2.444487         0.008391         0.735470
 H         0.790930         0.366667        -0.206437
 H        -0.537453         2.610221         1.236359
 H        -1.608809         2.376593        -0.292981
 H        -0.561640         1.085897         3.159253
 H        -1.261432        -0.452300         2.784114
 H        -5.291482         1.605961         0.852009
 H        -4.156854         2.673451         0.241293
 H        -4.361857        -0.280653        -0.334775
 H        -3.317825         0.939954        -1.031035
 H        -2.755475        -1.011298         1.186515
