19
Iteration:  1302
 O         0.085675        -0.226189         0.075094
 C        -0.932121         0.403318         0.775493
 C        -1.300764         1.962414         0.772764
 C        -2.291084         1.260525         1.656429
 C        -1.165202         0.465954         2.313464
 O        -3.504922         1.871738         1.967563
 C        -4.362390         1.426660         0.896508
 C        -3.523061         0.667116        -0.132335
 C        -2.461471         0.029638         0.726912
 H         0.906532        -0.039692         0.560253
 H        -0.565287         2.673435         1.220683
 H        -1.660762         2.434014        -0.123062
 H        -0.232768         1.019000         2.815612
 H        -1.530145        -0.459548         2.757434
 H        -5.191343         0.656853         1.316140
 H        -4.910197         2.335568         0.497488
 H        -4.299638        -0.151480        -0.469821
 H        -3.179729         1.233521        -0.999250
 H        -2.859329        -0.819618         1.259273
