19
Iteration:  2509charge 0 multiplicity 1
 O         0.098108        -0.185112         0.124843
 C        -0.965557         0.446031         0.782530
 C        -1.229821         1.920798         0.754024
 C        -2.259495         1.255995         1.748045
 C        -1.027242         0.437680         2.367135
 O        -3.536592         1.808812         2.037720
 C        -4.418410         1.588780         0.826747
 C        -3.609817         0.533662        -0.198895
 C        -2.431984         0.108433         0.686700
 H        -0.135703        -0.749491        -0.626360
 H        -0.779384         2.721443         1.341715
 H        -1.790881         2.205467        -0.115473
 H        -0.212328         0.973349         2.975972
 H        -1.167685        -0.579524         2.911524
 H        -5.346190         1.217453         1.176664
 H        -4.595070         2.562203         0.269974
 H        -4.300553        -0.297203        -0.443162
 H        -3.202470         1.061063        -1.128025
 H        -2.804378        -0.788613         1.080372
