19
Iteration:  2042
 O         0.102240        -0.310398         0.153826
 C        -0.879842         0.440109         0.785644
 C        -1.150908         1.924505         0.786298
 C        -2.287503         1.353182         1.694539
 C        -1.127120         0.429134         2.349307
 O        -3.551648         1.804710         1.970937
 C        -4.427497         1.410275         0.931400
 C        -3.679013         0.628823        -0.195096
 C        -2.463019         0.228306         0.583305
 H         0.721322         0.268956        -0.272613
 H        -0.256712         2.529642         1.180383
 H        -1.358528         2.173254        -0.330612
 H        -0.291906         0.837236         3.015932
 H        -1.447535        -0.395938         2.905078
 H        -5.027171         0.754591         1.572902
 H        -5.011089         2.215205         0.512685
 H        -4.401547        -0.260585        -0.400890
 H        -3.438390         1.408832        -0.936683
 H        -2.784893        -0.616349         1.165139
