19
Iteration:  3260
 O         0.097587        -0.224907         0.000143
 C        -0.895807         0.419567         0.775814
 C        -1.246557         1.916908         0.708908
 C        -2.306352         1.261471         1.709877
 C        -1.126305         0.542023         2.408638
 O        -3.555708         1.830782         1.991329
 C        -4.380719         1.458421         0.881006
 C        -3.487608         0.640065        -0.147270
 C        -2.495024         0.091542         0.760123
 H         0.017603        -1.124596         0.322538
 H        -0.520093         2.617534         1.281584
 H        -1.592329         2.439983        -0.210538
 H        -0.428670         1.172335         2.993072
 H        -1.349124        -0.388030         2.857042
 H        -5.237051         0.975672         1.266366
 H        -4.964521         2.291295         0.410989
 H        -4.143163        -0.177226        -0.496552
 H        -2.988544         1.236376        -1.005543
 H        -2.864159        -0.894406         1.181329
