19
Iteration:  1063charge 0 multiplicity 1
 O         0.075971        -0.280828         0.168384
 C        -0.931494         0.408688         0.855715
 C        -1.236326         2.018303         0.775583
 C        -2.299305         1.278387         1.601797
 C        -1.018433         0.464197         2.303794
 O        -3.519909         1.765841         1.966064
 C        -4.438541         1.488754         0.855340
 C        -3.673871         0.608252        -0.123795
 C        -2.469018         0.092904         0.650512
 H         0.910068         0.189478         0.198773
 H        -0.492132         2.749604         1.315819
 H        -1.411846         2.368727        -0.232484
 H        -0.159214         1.038530         2.936100
 H        -1.277203        -0.470617         2.761102
 H        -5.400300         1.178291         1.375531
 H        -4.611026         2.510494         0.423712
 H        -4.233128        -0.277854        -0.622321
 H        -3.405640         1.293587        -0.909941
 H        -2.682182        -0.864231         1.207317
