19
Iteration:  2020
 O         0.114852        -0.333228         0.116639
 C        -0.893204         0.424476         0.725698
 C        -1.229201         1.987869         0.708839
 C        -2.280803         1.233971         1.694798
 C        -1.103347         0.456710         2.318587
 O        -3.535127         1.860842         2.045760
 C        -4.514206         1.465932         0.856447
 C        -3.539856         0.638554        -0.178683
 C        -2.492573         0.090653         0.726377
 H         0.802731         0.413474         0.055982
 H        -0.519689         2.614379         1.352921
 H        -1.649938         2.514207        -0.232924
 H        -0.393268         0.965479         3.055745
 H        -1.401062        -0.372070         2.850558
 H        -5.290528         0.928685         1.360965
 H        -4.777457         2.467955         0.640922
 H        -4.217283        -0.231472        -0.485355
 H        -3.134671         1.356430        -0.909033
 H        -2.721462        -0.886573         1.117124
