19
Iteration:   220
 O         0.243621        -0.017474         0.056416
 C        -0.905666         0.409790         0.834455
 C        -1.356151         1.773309         0.762435
 C        -2.413793         1.078266         1.791359
 C        -1.112784         0.368306         2.336006
 O        -3.591675         1.738929         2.062589
 C        -4.255244         1.820843         0.806810
 C        -3.645958         0.700238        -0.250969
 C        -2.480074        -0.105158         0.673690
 H         0.977130        -0.037474         0.650050
 H        -0.684794         2.568270         1.338568
 H        -1.718017         2.208052        -0.076417
 H        -0.475399         0.898305         3.127474
 H        -1.446321        -0.545390         2.733079
 H        -5.334046         1.859665         1.049911
 H        -4.040368         2.781654         0.259800
 H        -4.442682         0.090139        -0.504212
 H        -3.190680         0.977673        -1.173665
 H        -2.705837        -1.097633         0.878993
