19
Iteration:   380
 O         0.136253        -0.247271         0.199388
 C        -0.908261         0.477253         0.710127
 C        -1.052734         1.973656         0.769563
 C        -2.266125         1.260268         1.565749
 C        -1.279224         0.410336         2.269910
 O        -3.566822         1.808199         1.987106
 C        -4.477060         1.413498         1.055519
 C        -3.608512         0.722132        -0.194706
 C        -2.479139         0.120618         0.612668
 H         0.849352        -0.085976         0.783584
 H        -0.416320         2.481093         1.486369
 H        -1.112926         2.410500        -0.153299
 H        -0.423334         0.769505         2.898295
 H        -1.560929        -0.509843         2.666321
 H        -5.195641         0.610800         1.361286
 H        -5.040983         2.233857         0.723447
 H        -4.215306        -0.124232        -0.643342
 H        -3.320884         1.390814        -0.996718
 H        -2.489356        -0.883295         1.051987
