19
Iteration:   260charge 0 multiplicity 1
 O         0.179404        -0.203115         0.162092
 C        -0.900111         0.434823         0.670544
 C        -1.250545         2.021873         0.839069
 C        -2.309556         1.230215         1.654828
 C        -1.226788         0.468356         2.334377
 O        -3.576366         1.604227         2.092256
 C        -4.333706         1.704872         0.886763
 C        -3.610261         0.588130        -0.247894
 C        -2.456895         0.102112         0.579275
 H         0.590460        -0.986795         0.689425
 H        -0.421359         2.438498         1.390693
 H        -1.608080         2.679582        -0.007365
 H        -0.541732         0.958529         3.015748
 H        -1.454812        -0.533889         2.748798
 H        -5.378028         1.464617         1.142704
 H        -4.191304         2.726596         0.645382
 H        -4.356321        -0.197046        -0.491768
 H        -3.328892         1.174849        -1.113555
 H        -2.569442        -0.951832         0.937170
