19
Iteration:  3552charge 0 multiplicity 1
 O         0.053791        -0.419847         0.095016
 C        -0.841194         0.425337         0.779976
 C        -1.195136         2.048314         0.681753
 C        -2.322982         1.324271         1.696966
 C        -1.062890         0.564147         2.287732
 O        -3.582394         1.892658         2.000515
 C        -4.558540         1.295112         0.858718
 C        -3.504786         0.684152        -0.077550
 C        -2.440881         0.105573         0.706389
 H         0.782907        -0.774093         0.590002
 H        -0.525737         2.720530         1.221848
 H        -1.592235         2.332253        -0.292928
 H        -0.221074         1.255122         2.761190
 H        -1.371480        -0.291916         2.951556
 H        -5.205221         0.653946         1.513400
 H        -5.091299         2.258776         0.522812
 H        -4.005031         0.031232        -0.755761
 H        -3.210455         1.545256        -0.851706
 H        -2.654183        -0.863100         1.231749
