19
Iteration:  1979
 O         0.050441        -0.257266        -0.004894
 C        -0.952596         0.445259         0.791479
 C        -1.295594         1.911504         0.685635
 C        -2.270802         1.210449         1.731398
 C        -1.085782         0.556074         2.438252
 O        -3.587481         1.704683         2.132466
 C        -4.359800         1.644192         0.787895
 C        -3.553689         0.585908        -0.201661
 C        -2.437388         0.111573         0.745667
 H         0.983361        -0.049965         0.250991
 H        -0.524377         2.551252         1.066734
 H        -1.578441         2.103904        -0.361861
 H        -0.281593         1.178305         2.928760
 H        -1.425599        -0.400486         3.079309
 H        -5.252651         1.076902         1.178609
 H        -4.423057         2.650070         0.248255
 H        -4.095328        -0.255519        -0.528962
 H        -3.205569         1.040016        -1.154618
 H        -2.808200        -0.838524         1.143905
