19
Iteration:  1424charge 0 multiplicity 1
 O         0.025912        -0.185852         0.019826
 C        -0.995258         0.423813         0.774644
 C        -1.133351         1.849252         0.750715
 C        -2.280802         1.290542         1.696579
 C        -1.152558         0.506884         2.419139
 O        -3.573719         1.861737         1.950291
 C        -4.415867         1.422683         0.882416
 C        -3.545820         0.614477        -0.104197
 C        -2.430340         0.083056         0.729294
 H         0.791605         0.252696         0.306436
 H        -0.381640         2.389987         1.234510
 H        -1.352128         2.230992        -0.300565
 H        -0.272380         0.911951         2.912829
 H        -1.417022        -0.488187         2.728008
 H        -5.241984         0.826946         1.406451
 H        -4.706917         2.349044         0.283520
 H        -4.015712        -0.292088        -0.536066
 H        -3.186522         1.352287        -0.884557
 H        -2.677566        -0.836210         1.175071
