19
Iteration:  1738
 O         0.051036        -0.365579         0.115131
 C        -0.860644         0.407529         0.763666
 C        -1.155884         1.976175         0.742289
 C        -2.247101         1.313936         1.546392
 C        -1.202645         0.560757         2.377540
 O        -3.522915         1.796439         1.954982
 C        -4.461113         1.294840         1.030721
 C        -3.585354         0.751550        -0.143369
 C        -2.443396         0.161710         0.662525
 H         0.827966         0.311846         0.050165
 H        -0.592735         2.655711         1.322395
 H        -1.430289         2.363325        -0.284374
 H        -0.399263         0.952112         3.097507
 H        -1.618352        -0.341238         2.827489
 H        -5.149621         0.426082         1.405950
 H        -5.091959         2.190995         0.603800
 H        -4.084480        -0.045128        -0.656066
 H        -3.346590         1.533759        -0.849443
 H        -2.754683        -0.747015         1.232673
