19
Iteration:  1748
 O         0.097140        -0.359031         0.114876
 C        -0.918240         0.387109         0.740924
 C        -1.093773         1.981807         0.727133
 C        -2.279452         1.363778         1.631583
 C        -1.207497         0.510466         2.386717
 O        -3.548896         1.816566         2.018548
 C        -4.486478         1.278759         0.943494
 C        -3.629739         0.702269        -0.171421
 C        -2.388813         0.204617         0.641524
 H         1.038287         0.007430         0.032853
 H        -0.444566         2.560253         1.292386
 H        -1.280016         2.432043        -0.291023
 H        -0.556684         1.270112         2.946791
 H        -1.314784        -0.479965         2.671267
 H        -5.077104         0.606113         1.685084
 H        -5.138854         2.235754         0.636331
 H        -4.236655        -0.091453        -0.568327
 H        -3.585907         1.454722        -0.896513
 H        -2.792872        -0.668844         1.187314
