19
Iteration:  2926charge 0 multiplicity 1
 O         0.249089        -0.158420         0.080359
 C        -0.987550         0.395357         0.732771
 C        -1.296326         1.945103         0.780988
 C        -2.281636         1.229525         1.646479
 C        -1.091480         0.504932         2.381027
 O        -3.598830         1.806528         2.047002
 C        -4.258058         1.652678         0.808126
 C        -3.735288         0.481680        -0.147156
 C        -2.444020         0.039593         0.775765
 H        -0.049233        -0.985184        -0.223223
 H        -0.543741         2.724637         1.113026
 H        -1.756711         2.371611        -0.154993
 H        -0.317641         1.150672         2.776538
 H        -1.131619        -0.395604         2.859137
 H        -5.216183         1.338007         1.187564
 H        -4.355796         2.695762         0.311751
 H        -4.459711        -0.311976        -0.211077
 H        -3.466930         0.773774        -1.136656
 H        -2.634080        -0.916438         1.340332
