19
Iteration:   747charge 0 multiplicity 1
 O         0.013008        -0.301887         0.103407
 C        -0.933149         0.454707         0.817014
 C        -1.246902         1.991953         0.842721
 C        -2.262592         1.252374         1.619802
 C        -1.049096         0.465659         2.353854
 O        -3.493992         1.874623         1.942202
 C        -4.461406         1.375972         0.895295
 C        -3.552673         0.705135        -0.133706
 C        -2.446423         0.037132         0.633998
 H         0.833339         0.272259        -0.140197
 H        -0.557338         2.463483         1.546349
 H        -1.568805         2.558292        -0.045575
 H        -0.387612         1.177483         2.985198
 H        -1.532245        -0.311291         2.883273
 H        -5.234146         0.670356         1.267907
 H        -5.057429         2.201383         0.425757
 H        -4.212674        -0.157450        -0.575037
 H        -3.133452         1.342696        -0.921617
 H        -2.691534        -0.981433         1.126570
