19
Iteration:  4343
 O         0.133143        -0.243054         0.114242
 C        -0.943562         0.425265         0.724253
 C        -1.349735         1.940371         0.608546
 C        -2.310073         1.272799         1.703620
 C        -1.049790         0.676853         2.339393
 O        -3.700674         1.718604         2.140377
 C        -4.262859         1.588933         0.780201
 C        -3.522159         0.525549        -0.040461
 C        -2.391760         0.059242         0.788465
 H        -0.293664        -1.057033        -0.344701
 H        -0.553889         2.693772         0.899195
 H        -1.889091         2.141613        -0.350442
 H        -0.243680         1.405149         2.673989
 H        -1.209009        -0.310006         2.916208
 H        -5.413379         1.433132         0.864449
 H        -4.035010         2.472913         0.242170
 H        -4.278996        -0.321028        -0.351289
 H        -3.298308         0.817527        -1.011083
 H        -2.410460        -0.953254         1.185460
