19
Iteration:  1274charge 0 multiplicity 1
 O         0.001118        -0.265949         0.021854
 C        -0.877134         0.481558         0.734920
 C        -1.103269         1.937968         0.775316
 C        -2.281306         1.219657         1.712766
 C        -1.079170         0.506733         2.477327
 O        -3.592320         1.807106         2.017618
 C        -4.448341         1.428362         0.813063
 C        -3.608074         0.582405        -0.191410
 C        -2.450118         0.155571         0.751447
 H         0.843083         0.130998         0.110580
 H        -0.326594         2.586368         1.163196
 H        -1.507534         2.370447        -0.205021
 H        -0.397282         1.130359         2.868906
 H        -1.376897        -0.425256         3.034235
 H        -5.332835         1.006186         1.112074
 H        -4.756892         2.403401         0.434862
 H        -4.154710        -0.206656        -0.584148
 H        -3.331651         1.205378        -1.088239
 H        -2.700194        -0.813594         1.273908
