19
Iteration:  3034
 O         0.259042        -0.179465         0.159691
 C        -0.926744         0.370397         0.773484
 C        -1.136901         1.961254         0.753331
 C        -2.264120         1.305451         1.617067
 C        -1.283363         0.492288         2.284613
 O        -3.424555         1.932536         1.943297
 C        -4.447400         1.392136         1.102711
 C        -3.718445         0.530085        -0.233451
 C        -2.547519         0.172585         0.630190
 H         0.167380        -1.141766         0.337177
 H        -0.253265         2.447969         1.200327
 H        -1.409236         2.364131        -0.238164
 H        -0.368726         1.020167         2.905688
 H        -1.650090        -0.431879         2.757989
 H        -5.027915         0.585706         1.787106
 H        -5.030860         2.151092         0.605539
 H        -4.284853        -0.291798        -0.591340
 H        -3.411101         1.098769        -1.109993
 H        -2.845026        -0.729221         1.191414
