19
Iteration:  2430charge 0 multiplicity 1
 O         0.150955        -0.353237         0.263332
 C        -0.931473         0.420901         0.700598
 C        -1.195215         2.028505         0.723348
 C        -2.247708         1.325083         1.630130
 C        -1.175106         0.455066         2.266078
 O        -3.489715         1.850790         2.010293
 C        -4.487318         1.388484         1.028850
 C        -3.615351         0.653716        -0.149150
 C        -2.460260         0.113063         0.604547
 H         0.485310         0.086013        -0.534472
 H        -0.331954         2.505538         1.273475
 H        -1.463805         2.640582        -0.229309
 H        -0.437087         1.045539         2.755899
 H        -1.671483        -0.574833         2.799614
 H        -5.232471         0.738238         1.486164
 H        -4.941049         2.323198         0.665730
 H        -4.207840        -0.173108        -0.770002
 H        -3.254698         1.385483        -0.941972
 H        -2.835548        -0.761528         1.104190
