19
Iteration:  3231charge 0 multiplicity 1
 O         0.052325        -0.147808         0.012211
 C        -0.929277         0.456042         0.828478
 C        -1.275585         1.966908         0.744983
 C        -2.280676         1.267578         1.747209
 C        -1.064822         0.501072         2.375366
 O        -3.542324         1.713026         2.060716
 C        -4.277750         1.587592         0.704582
 C        -3.574323         0.511064        -0.133450
 C        -2.514936         0.079127         0.754725
 H         0.090552        -1.135802         0.299666
 H        -0.564665         2.600783         1.132907
 H        -1.806489         2.334678        -0.138474
 H        -0.462169         1.304362         2.877418
 H        -1.246948        -0.542003         2.804883
 H        -5.433285         1.605739         1.012603
 H        -4.087026         2.542179         0.144642
 H        -4.257274        -0.389799        -0.119635
 H        -3.296122         0.823805        -1.100048
 H        -2.750918        -0.818963         1.289451
