19
Iteration:  2744charge 0 multiplicity 1
 O         0.132539        -0.313184         0.305390
 C        -0.888575         0.499905         0.770816
 C        -1.193681         2.006661         0.698139
 C        -2.255410         1.269502         1.657771
 C        -1.141846         0.407964         2.293376
 O        -3.485675         1.912043         1.942670
 C        -4.452089         1.308727         1.028725
 C        -3.652194         0.726559        -0.178379
 C        -2.475217         0.129830         0.569683
 H         0.071109        -0.662119        -0.645231
 H        -0.405127         2.467396         1.139340
 H        -1.457189         2.511417        -0.221641
 H        -0.473222         1.048655         2.888161
 H        -1.140967        -0.658387         2.769366
 H        -5.123224         0.491940         1.458796
 H        -5.200499         1.959112         0.709681
 H        -4.441975         0.103053        -0.724780
 H        -3.501374         1.581096        -0.842205
 H        -2.626517        -0.810077         1.057868
