19
Iteration:  1118
 O         0.008577        -0.186209         0.095318
 C        -0.976824         0.411113         0.767987
 C        -1.305198         1.860931         0.717371
 C        -2.349362         1.222278         1.717700
 C        -1.109016         0.525744         2.403476
 O        -3.581861         1.716412         2.018223
 C        -4.268591         1.641697         0.802710
 C        -3.529306         0.588598        -0.118159
 C        -2.372049        -0.000112         0.728174
 H         0.760116         0.463085        -0.122521
 H        -0.460803         2.599534         0.962246
 H        -1.669023         2.161040        -0.273618
 H        -0.311141         1.271244         2.846218
 H        -1.458472        -0.359869         2.900324
 H        -5.338003         1.542989         1.092662
 H        -4.193355         2.695154         0.400455
 H        -4.145510        -0.280423        -0.509373
 H        -3.170168         1.177668        -0.950909
 H        -2.589631        -0.970054         1.244629
