19
Iteration:  1342
 O         0.153122        -0.330440         0.157849
 C        -0.903111         0.390136         0.772242
 C        -1.184506         1.916525         0.704109
 C        -2.295013         1.330759         1.582182
 C        -1.157541         0.527000         2.280374
 O        -3.593152         1.779210         2.073652
 C        -4.442330         1.403404         0.970564
 C        -3.619386         0.749766        -0.150976
 C        -2.429094         0.122040         0.601971
 H         1.018742         0.062296         0.395554
 H        -0.444906         2.551998         1.348515
 H        -1.372590         2.328293        -0.279352
 H        -0.479302         1.215923         2.704387
 H        -1.511262        -0.211286         2.995452
 H        -5.138149         0.727317         1.400353
 H        -5.085653         2.190765         0.681311
 H        -4.241311        -0.070713        -0.627318
 H        -3.399382         1.383958        -1.006889
 H        -2.599880        -0.842224         1.189478
