19
Iteration:  3521
 O        -0.004222        -0.271569         0.156079
 C        -0.976299         0.427174         0.775430
 C        -1.212424         1.926299         0.667670
 C        -2.258974         1.282803         1.706105
 C        -1.166099         0.585070         2.370077
 O        -3.481751         1.742885         2.013840
 C        -4.355088         1.508733         0.864960
 C        -3.544078         0.583847        -0.156994
 C        -2.437587         0.072927         0.661263
 H         0.933862         0.079858         0.233595
 H        -0.488783         2.724266         0.920049
 H        -1.668784         2.338770        -0.291933
 H        -0.288260         1.236363         2.793084
 H        -1.505202        -0.187768         3.117725
 H        -5.168230         0.856902         1.337304
 H        -4.784373         2.537896         0.476571
 H        -4.334291        -0.149224        -0.250001
 H        -3.450500         1.031700        -1.216045
 H        -2.728297        -0.861439         1.132868
