19
Iteration:  2571
 O         0.166624        -0.177625         0.204911
 C        -0.914891         0.375443         0.794159
 C        -1.383329         1.936926         0.667076
 C        -2.255862         1.215993         1.757848
 C        -1.049198         0.505549         2.324377
 O        -3.572464         1.667793         2.081641
 C        -4.242742         1.721124         0.782205
 C        -3.621251         0.607528        -0.134043
 C        -2.530663         0.026378         0.644242
 H        -0.058284        -0.333152        -0.710617
 H        -0.877831         2.849998         1.107703
 H        -1.994346         2.165051        -0.316234
 H        -0.373953         1.130051         2.770725
 H        -1.026021        -0.529224         2.816718
 H        -5.341413         1.477811         0.941889
 H        -4.001092         2.711413         0.441313
 H        -4.369762        -0.248130        -0.165028
 H        -3.400197         0.955817        -1.122518
 H        -2.747280        -0.896438         1.265254
