19
Iteration:  4655charge 0 multiplicity 1
 O         0.225058        -0.209571         0.189778
 C        -0.970058         0.369525         0.755151
 C        -1.316455         1.754911         0.544176
 C        -2.286482         1.312152         1.671772
 C        -1.156417         0.556578         2.419102
 O        -3.442559         1.930879         1.969924
 C        -4.386700         1.520674         0.946583
 C        -3.682632         0.530753        -0.069847
 C        -2.458005         0.050927         0.720208
 H         0.422396         0.483954        -0.394504
 H        -0.494234         2.490276         0.742145
 H        -1.714774         2.036572        -0.448804
 H        -0.293634         1.105883         2.801090
 H        -1.352677        -0.370117         3.002288
 H        -5.163481         0.840744         1.430600
 H        -5.106180         2.318993         0.420902
 H        -4.419866        -0.138452        -0.460126
 H        -3.362591         1.304955        -0.966672
 H        -2.610653        -0.962134         1.113132
