19
Iteration:   212charge 0 multiplicity 1
 O         0.242275        -0.036838         0.011475
 C        -0.925692         0.357673         0.801367
 C        -1.415424         1.846190         0.853673
 C        -2.360518         1.041350         1.726882
 C        -1.190329         0.420522         2.375816
 O        -3.566922         1.736969         2.084571
 C        -4.189833         1.812978         0.726254
 C        -3.627630         0.685248        -0.205928
 C        -2.492262        -0.085625         0.685453
 H         0.925769         0.032227         0.627571
 H        -0.818415         2.458064         1.493922
 H        -1.725659         2.232506        -0.111643
 H        -0.401782         0.979552         2.957376
 H        -1.365947        -0.587189         2.859563
 H        -5.238076         1.613543         0.937670
 H        -3.971064         2.870409         0.338149
 H        -4.480378        -0.047096        -0.450965
 H        -3.246054         1.243404        -1.133981
 H        -2.729419        -1.143826         1.014400
