19
Iteration:  3931charge 0 multiplicity 1
 O         0.192289        -0.321423         0.230093
 C        -0.891519         0.379715         0.839669
 C        -1.209249         1.943058         0.589570
 C        -2.174692         1.309133         1.513597
 C        -1.164470         0.670966         2.325863
 O        -3.477108         1.793185         1.960484
 C        -4.524245         1.317876         1.059453
 C        -3.719097         0.683752        -0.130336
 C        -2.487687         0.164931         0.590663
 H         0.662093        -0.705590         0.976413
 H        -0.536533         2.749655         0.922026
 H        -1.593410         2.135989        -0.471813
 H        -0.355674         1.340943         2.797932
 H        -1.237479        -0.333196         2.832837
 H        -5.249829         0.679162         1.510516
 H        -5.255702         2.081504         0.849806
 H        -4.156708        -0.136237        -0.654758
 H        -3.492120         1.431959        -0.834422
 H        -2.834079        -0.627938         1.188735
