19
Iteration:  1211charge 0 multiplicity 1
 O         0.115403        -0.185794         0.153611
 C        -0.923017         0.365938         0.803784
 C        -1.333552         1.859676         0.703554
 C        -2.304281         1.203161         1.668298
 C        -0.956899         0.524954         2.310884
 O        -3.639957         1.656459         2.033829
 C        -4.387366         1.715256         0.835044
 C        -3.615955         0.681771        -0.128699
 C        -2.425856         0.010873         0.707546
 H         0.919864         0.245334         0.339739
 H        -0.589905         2.613497         1.043762
 H        -1.648063         2.152140        -0.356205
 H        -0.140018         1.150567         2.704722
 H        -1.222947        -0.335779         2.986413
 H        -5.453585         1.313518         1.003493
 H        -4.416786         2.683925         0.333404
 H        -4.421886        -0.069512        -0.355683
 H        -3.235682         1.077419        -1.138396
 H        -2.704613        -0.912864         1.272040
