19
Iteration:  3938charge 0 multiplicity 1
 O         0.124750        -0.321843         0.243183
 C        -0.917503         0.430954         0.752320
 C        -1.206173         1.942894         0.601196
 C        -2.268817         1.314894         1.515299
 C        -1.136957         0.672264         2.318998
 O        -3.473097         1.791744         1.985408
 C        -4.511257         1.352644         1.092166
 C        -3.624215         0.646695        -0.178592
 C        -2.431833         0.131254         0.599044
 H         0.591995        -0.834169         0.983271
 H        -0.551818         2.663385         1.054478
 H        -1.675644         2.098360        -0.346006
 H        -0.497414         1.377683         2.759984
 H        -1.288579        -0.120254         3.052426
 H        -5.028632         0.440462         1.624950
 H        -5.083910         2.253285         0.761448
 H        -4.347163        -0.136308        -0.659591
 H        -3.302054         1.460277        -0.884893
 H        -2.742037        -0.821095         1.217020
