19
Iteration:  4530charge 0 multiplicity 1
 O         0.192987        -0.244264         0.135065
 C        -0.892634         0.420775         0.843932
 C        -1.219874         1.970690         0.620773
 C        -2.298820         1.387049         1.635480
 C        -1.090965         0.491112         2.324596
 O        -3.491434         1.966187         1.915604
 C        -4.446918         1.374741         0.973266
 C        -3.666291         0.504483        -0.070874
 C        -2.486869         0.108560         0.743014
 H        -0.288493        -0.973548        -0.306666
 H        -0.503783         2.606182         1.191124
 H        -1.568744         2.332016        -0.395216
 H        -0.156215         0.912919         2.860610
 H        -1.563922        -0.382119         2.841816
 H        -5.193490         0.612193         1.410463
 H        -4.945838         2.240675         0.471272
 H        -4.291571        -0.343238        -0.464636
 H        -3.468189         0.970285        -0.886266
 H        -2.670160        -0.803561         1.258749
