19
Iteration:  3339
 O         0.152211        -0.254203         0.221469
 C        -0.919430         0.380491         0.757346
 C        -1.072676         1.985262         0.769757
 C        -2.278376         1.270293         1.581234
 C        -1.206067         0.481788         2.252798
 O        -3.506891         1.910800         1.876862
 C        -4.458427         1.297172         1.090476
 C        -3.729556         0.710933        -0.159860
 C        -2.422335         0.169858         0.586081
 H         0.294523        -0.982606         0.851995
 H        -0.304776         2.442111         1.370999
 H        -1.226362         2.551253        -0.190430
 H        -0.513292         1.121768         2.768312
 H        -1.345574        -0.453376         2.751248
 H        -4.831615         0.445802         1.697123
 H        -5.265076         2.008836         0.853834
 H        -4.270067        -0.140790        -0.723574
 H        -3.572725         1.460095        -0.933455
 H        -2.907580        -0.701741         1.070754
