19
Iteration:  1589charge 0 multiplicity 1
 O         0.091673        -0.189098         0.023088
 C        -0.931368         0.422912         0.803560
 C        -1.327252         1.902236         0.706082
 C        -2.333703         1.196151         1.752385
 C        -1.160166         0.556465         2.425847
 O        -3.528276         1.650447         2.043084
 C        -4.203210         1.653504         0.820950
 C        -3.666363         0.557949        -0.204952
 C        -2.467629         0.033463         0.759946
 H         0.773878         0.548684        -0.046766
 H        -0.642982         2.684343         1.093887
 H        -1.723056         2.053197        -0.350890
 H        -0.364308         1.164514         2.777620
 H        -1.275663        -0.347581         3.188961
 H        -5.339063         1.822354         1.064272
 H        -3.936111         2.646425         0.371499
 H        -4.351433        -0.251390        -0.446716
 H        -3.242447         1.091418        -1.149593
 H        -2.507306        -0.881737         1.308801
