19
Iteration:   988charge 0 multiplicity 1
 O         0.022585        -0.358528         0.135926
 C        -0.969824         0.398331         0.731728
 C        -1.182895         1.983679         0.773071
 C        -2.244361         1.321381         1.726232
 C        -1.098456         0.456675         2.358151
 O        -3.579797         1.940103         1.962267
 C        -4.453422         1.217070         0.960133
 C        -3.559253         0.743239        -0.228654
 C        -2.397678         0.192541         0.610387
 H         0.897644         0.076634         0.283670
 H        -0.378451         2.535778         1.439092
 H        -1.409056         2.444000        -0.164616
 H        -0.344268         1.057686         2.856098
 H        -1.247254        -0.356698         2.963555
 H        -4.955039         0.481147         1.568138
 H        -5.137374         2.008670         0.616823
 H        -4.293784        -0.055456        -0.684197
 H        -3.413947         1.377377        -1.099883
 H        -2.602709        -0.830946         1.106199
