19
Iteration:  2444
 O         0.118972        -0.329493         0.242249
 C        -0.897667         0.433601         0.759682
 C        -1.095469         1.931009         0.700741
 C        -2.290585         1.285375         1.614142
 C        -1.100583         0.523708         2.310114
 O        -3.540368         1.759622         2.046517
 C        -4.442964         1.408955         0.928311
 C        -3.679324         0.718154        -0.174964
 C        -2.500531         0.182249         0.647738
 H         0.328470        -0.053537        -0.720695
 H        -0.487267         2.678637         1.226244
 H        -1.411405         2.351128        -0.226922
 H        -0.280372         1.032269         2.964001
 H        -1.337175        -0.530857         2.860267
 H        -5.148751         0.747173         1.410495
 H        -5.076242         2.286435         0.582483
 H        -4.332532        -0.114398        -0.585022
 H        -3.490988         1.497162        -1.123202
 H        -2.597495        -0.779184         1.203422
