19
Iteration:  3272charge 0 multiplicity 1
 O         0.132137        -0.209299         0.080001
 C        -0.964233         0.352882         0.747487
 C        -1.191730         1.906019         0.760018
 C        -2.299665         1.266143         1.656258
 C        -1.151076         0.566685         2.368422
 O        -3.490041         1.875457         2.003943
 C        -4.476080         1.358187         0.878057
 C        -3.600667         0.721266        -0.168812
 C        -2.445613         0.058918         0.765486
 H         0.219821        -1.163096         0.040334
 H        -0.324571         2.518783         1.153705
 H        -1.636307         2.267091        -0.198554
 H        -0.505613         1.335481         2.856057
 H        -1.280124        -0.277972         2.966177
 H        -5.029900         0.566932         1.280278
 H        -4.760339         2.380948         0.540301
 H        -4.185047         0.091242        -0.926041
 H        -3.165409         1.493799        -0.929450
 H        -2.721069        -0.830786         1.424199
