19
Iteration:  3964
 O         0.077119        -0.306896         0.130019
 C        -0.972815         0.461747         0.733991
 C        -1.238457         1.982568         0.584099
 C        -2.308551         1.342666         1.693507
 C        -1.044867         0.627333         2.339536
 O        -3.547076         1.877029         2.043414
 C        -4.440956         1.319442         0.863246
 C        -3.527043         0.586237        -0.131397
 C        -2.465789         0.110309         0.771237
 H         0.252969        -1.176935         0.635820
 H        -0.504520         2.687264         1.052383
 H        -1.765600         2.222639        -0.374221
 H        -0.257247         1.258961         2.929675
 H        -1.106962        -0.412452         2.774572
 H        -4.955529         0.505929         1.323469
 H        -4.854494         2.170445         0.391397
 H        -4.097606        -0.191464        -0.562807
 H        -3.127632         1.236912        -0.860578
 H        -2.749321        -0.780281         1.296333
