19
Iteration:  1233
 O         0.073408        -0.284424         0.119453
 C        -0.956085         0.488482         0.719700
 C        -1.240424         1.960172         0.625114
 C        -2.360293         1.158321         1.800926
 C        -1.123282         0.546412         2.372440
 O        -3.538010         1.727689         2.143687
 C        -4.307666         1.543784         0.812244
 C        -3.553591         0.597983        -0.213108
 C        -2.499355         0.100956         0.724573
 H         0.930973         0.268172         0.014600
 H        -0.617072         2.771719         1.075977
 H        -1.790042         2.500247        -0.200918
 H        -0.365797         1.178169         2.892039
 H        -1.201407        -0.474677         2.828258
 H        -5.365524         1.166817         1.053711
 H        -4.331522         2.475477         0.254491
 H        -4.162851        -0.244396        -0.698517
 H        -3.038015         1.198532        -1.037701
 H        -2.806656        -0.897796         1.147104
