19
Iteration:  3980charge 0 multiplicity 1
 O         0.055945        -0.199965         0.029165
 C        -0.878971         0.397295         0.872775
 C        -1.298922         1.916903         0.673091
 C        -2.208396         1.358637         1.682769
 C        -0.991522         0.577705         2.360407
 O        -3.602527         1.839494         1.896033
 C        -4.455335         1.394489         0.875724
 C        -3.577448         0.538412        -0.147654
 C        -2.413739         0.135293         0.876590
 H        -0.094396        -1.193787         0.246718
 H        -0.468934         2.574211         1.000682
 H        -1.680850         2.155431        -0.288430
 H        -0.197974         1.150880         2.736471
 H        -1.327203        -0.155955         3.081432
 H        -5.354028         0.894442         1.344943
 H        -4.947121         2.347952         0.444602
 H        -4.029717        -0.452676        -0.545502
 H        -3.182128         1.213840        -0.982926
 H        -2.742437        -0.785383         1.463104
