19
Iteration:  4332charge 0 multiplicity 1
 O         0.060247        -0.248186         0.097603
 C        -0.888884         0.426978         0.836861
 C        -1.295806         1.966858         0.637892
 C        -2.279762         1.357981         1.681296
 C        -1.011341         0.673824         2.323179
 O        -3.637179         1.650990         2.088920
 C        -4.314453         1.621430         0.794629
 C        -3.580881         0.447699        -0.135339
 C        -2.385457         0.052964         0.767860
 H        -0.343094        -1.040702        -0.336685
 H        -0.706906         2.870686         0.965508
 H        -1.753831         2.235715        -0.352495
 H        -0.312568         1.298755         2.938187
 H        -1.298877        -0.192008         3.012266
 H        -5.408872         1.392018         1.069857
 H        -4.310770         2.603438         0.387214
 H        -4.256183        -0.498062        -0.265162
 H        -3.262136         0.916676        -1.006231
 H        -2.697100        -0.808741         1.364308
