19
Iteration:  1708
 O         0.040544        -0.294636         0.126911
 C        -0.969969         0.414521         0.711398
 C        -1.243415         1.851886         0.722873
 C        -2.292978         1.231377         1.694286
 C        -1.081217         0.529269         2.394820
 O        -3.534142         1.957159         2.020545
 C        -4.387200         1.305285         0.943817
 C        -3.526586         0.754841        -0.210523
 C        -2.460678         0.112326         0.677808
 H         0.654112         0.416780         0.167861
 H        -0.546238         2.595313         1.215597
 H        -1.629196         2.301271        -0.228472
 H        -0.349651         1.039090         2.956798
 H        -1.138512        -0.552512         2.822698
 H        -4.996275         0.560377         1.228872
 H        -5.100042         1.920212         0.528215
 H        -4.039188        -0.095601        -0.660817
 H        -3.249437         1.473065        -1.064679
 H        -2.830430        -0.853299         1.095970
