19
Iteration:  2594charge 0 multiplicity 1
 O         0.209981        -0.264256         0.185661
 C        -0.903778         0.443383         0.782400
 C        -1.369012         1.898365         0.653908
 C        -2.359696         1.193781         1.769331
 C        -1.005057         0.554781         2.261542
 O        -3.605765         1.697399         2.079185
 C        -4.305461         1.715219         0.803177
 C        -3.643674         0.637487        -0.116806
 C        -2.495368        -0.035876         0.705135
 H         0.416792        -0.054462        -0.796216
 H        -0.631404         2.578123         1.230572
 H        -1.981432         2.457858        -0.157856
 H        -0.427240         1.209118         2.767908
 H        -1.283195        -0.401495         2.844969
 H        -5.375759         1.640740         1.002695
 H        -3.906675         2.653580         0.387909
 H        -4.386077        -0.162734        -0.409758
 H        -3.279730         1.075594        -0.983270
 H        -2.492797        -1.024796         1.214840
