19
Iteration:  1242charge 0 multiplicity 1
 O         0.013067        -0.296045         0.093162
 C        -0.928831         0.452392         0.742580
 C        -1.283619         2.017425         0.706967
 C        -2.298540         1.221467         1.679491
 C        -1.174190         0.552545         2.390260
 O        -3.545339         1.749238         2.143060
 C        -4.337604         1.509105         0.858298
 C        -3.501745         0.557297        -0.212173
 C        -2.406168         0.075314         0.671797
 H         0.870305         0.194394        -0.164550
 H        -0.572336         2.679557         1.207352
 H        -1.790416         2.341097        -0.277506
 H        -0.453797         1.014125         2.893459
 H        -1.565393        -0.292312         3.018851
 H        -5.333838         1.224640         1.155319
 H        -4.295824         2.492977         0.386755
 H        -4.184626        -0.125358        -0.664170
 H        -3.069069         1.244805        -1.018703
 H        -2.589506        -0.863345         1.275169
