19
Iteration:  3604
 O         0.206363        -0.227723         0.135591
 C        -0.874750         0.403521         0.771955
 C        -1.144043         1.867849         0.676518
 C        -2.308697         1.331529         1.568484
 C        -1.216249         0.539326         2.388414
 O        -3.503126         1.949031         1.881787
 C        -4.447773         1.342524         1.109697
 C        -3.659040         0.649823        -0.153057
 C        -2.430912         0.097959         0.598027
 H         0.281463        -1.109934         0.562191
 H        -0.554989         2.510037         1.329086
 H        -1.467373         2.259810        -0.255402
 H        -0.663519         1.038497         3.151331
 H        -1.597025        -0.372359         2.783033
 H        -5.014539         0.629166         1.715680
 H        -5.241991         2.021732         0.851460
 H        -4.471987        -0.059609        -0.427431
 H        -3.445946         1.477614        -0.915016
 H        -2.750348        -0.916924         1.027325
