19
Iteration:  2737
 O         0.128433        -0.308726         0.319033
 C        -0.929714         0.485143         0.778612
 C        -1.177022         1.964711         0.710827
 C        -2.286170         1.272363         1.617093
 C        -1.100994         0.444955         2.297959
 O        -3.477627         1.861913         1.926895
 C        -4.518220         1.315577         1.049675
 C        -3.683618         0.749569        -0.179357
 C        -2.406813         0.158828         0.535431
 H        -0.067664        -0.681218        -0.609697
 H        -0.236720         2.453392         1.267741
 H        -1.432568         2.559415        -0.201893
 H        -0.453874         1.058415         2.851062
 H        -1.165281        -0.572507         2.690581
 H        -4.912388         0.432903         1.538444
 H        -5.149821         2.228476         0.803294
 H        -4.181824        -0.084945        -0.681422
 H        -3.409824         1.559078        -0.866597
 H        -2.832771        -0.696391         1.187860
