19
Iteration:  1839
 O         0.021750        -0.332073         0.054885
 C        -0.936086         0.450121         0.734804
 C        -1.198530         1.965488         0.731222
 C        -2.223843         1.337560         1.732085
 C        -1.121980         0.532356         2.366944
 O        -3.567160         1.736354         2.070735
 C        -4.419475         1.505862         0.849063
 C        -3.591535         0.575462        -0.171031
 C        -2.417310         0.096171         0.698068
 H         0.804980         0.149870         0.242749
 H        -0.654626         2.798156         1.306121
 H        -1.579027         2.479860        -0.164521
 H        -0.362379         1.073766         2.795660
 H        -1.452100        -0.424119         2.956212
 H        -5.329684         1.034039         1.315282
 H        -4.363744         2.449639         0.251332
 H        -4.131810        -0.251691        -0.656108
 H        -3.285712         1.273111        -1.038207
 H        -2.683248        -0.818846         1.320570
