19
Iteration:   589
 O         0.054818        -0.202620        -0.004427
 C        -0.942496         0.483041         0.761464
 C        -1.259830         2.008611         0.876455
 C        -2.286677         1.252907         1.734372
 C        -1.070395         0.383960         2.366468
 O        -3.616370         1.807587         1.988328
 C        -4.319951         1.585401         0.695708
 C        -3.578506         0.521938        -0.057274
 C        -2.446482         0.029758         0.801747
 H         0.818616         0.386290        -0.329790
 H        -0.480838         2.558106         1.357790
 H        -1.636394         2.342092        -0.037289
 H        -0.393701         0.843342         3.020206
 H        -1.368230        -0.623823         2.685521
 H        -5.267251         1.150224         1.031957
 H        -4.521488         2.509669         0.213727
 H        -4.255770        -0.258051        -0.370995
 H        -3.168877         1.006949        -1.011109
 H        -2.559906        -0.984302         1.185159
