19
Iteration:  1482charge 0 multiplicity 1
 O         0.057041        -0.299753         0.167469
 C        -0.911329         0.500620         0.801078
 C        -1.261014         1.952819         0.661760
 C        -2.319678         1.211081         1.639733
 C        -1.081271         0.558888         2.270545
 O        -3.540344         1.667255         2.144506
 C        -4.345282         1.633243         0.839500
 C        -3.607098         0.633314        -0.173426
 C        -2.476198         0.046115         0.699774
 H         0.927221         0.181546         0.417164
 H        -0.692978         2.788316         1.135238
 H        -1.546006         2.233794        -0.311349
 H        -0.333691         1.142888         2.817832
 H        -1.130001        -0.496448         2.809078
 H        -5.263153         0.994733         1.039682
 H        -4.801030         2.567212         0.411592
 H        -4.210765        -0.086558        -0.655008
 H        -3.141887         1.052580        -1.047841
 H        -2.721388        -0.901040         1.163953
