19
Iteration:  4497
 O         0.157338        -0.226765         0.123264
 C        -0.960059         0.485309         0.713349
 C        -1.150913         1.909981         0.571293
 C        -2.259239         1.261023         1.731924
 C        -1.126680         0.667910         2.450730
 O        -3.492364         1.838838         1.990962
 C        -4.372767         1.416990         0.878270
 C        -3.723592         0.524622        -0.112000
 C        -2.511206         0.068876         0.703722
 H        -0.053073        -1.128037         0.200177
 H        -0.323804         2.543817         1.035233
 H        -1.571368         2.436477        -0.323998
 H        -0.273045         1.297962         2.899499
 H        -1.317708        -0.285704         3.012274
 H        -5.336301         0.882509         1.269864
 H        -4.666633         2.466597         0.669157
 H        -4.424571        -0.333627        -0.330380
 H        -3.480336         1.065563        -0.890237
 H        -2.598085        -0.951180         1.014452
