19
Iteration:  1235
 O         0.061728        -0.284966         0.114587
 C        -0.952405         0.478889         0.720521
 C        -1.246781         1.978764         0.633603
 C        -2.348598         1.157645         1.779700
 C        -1.148981         0.546825         2.370120
 O        -3.536733         1.737799         2.151745
 C        -4.316101         1.533708         0.826189
 C        -3.536429         0.591062        -0.220068
 C        -2.482662         0.099557         0.708054
 H         0.926531         0.218015        -0.040268
 H        -0.618757         2.786938         1.101190
 H        -1.779821         2.459971        -0.156079
 H        -0.278288         1.173233         2.962186
 H        -1.290854        -0.410726         2.892032
 H        -5.398355         1.148835         1.084387
 H        -4.259434         2.445002         0.231051
 H        -4.199981        -0.251632        -0.714154
 H        -3.023306         1.176098        -0.981309
 H        -2.764631        -0.840218         1.182585
