19
Iteration:  2068charge 0 multiplicity 1
 O         0.143593        -0.312901         0.173025
 C        -0.897118         0.437693         0.726130
 C        -1.152603         1.918195         0.778949
 C        -2.316461         1.274897         1.613454
 C        -1.277686         0.530749         2.336989
 O        -3.450069         1.907101         1.989533
 C        -4.443721         1.329725         0.981526
 C        -3.656452         0.724100        -0.185784
 C        -2.447315         0.064060         0.621682
 H         0.515186         0.169074        -0.564634
 H        -0.402548         2.429151         1.329699
 H        -1.422342         2.412848        -0.123516
 H        -0.599121         1.005010         2.981144
 H        -1.317750        -0.544684         2.814223
 H        -4.847825         0.570258         1.688225
 H        -5.175502         2.058344         0.532036
 H        -4.187840         0.022407        -0.725456
 H        -3.219704         1.594054        -0.637636
 H        -2.805164        -0.779500         1.261476
