19
Iteration:  2822charge 0 multiplicity 1
 O         0.052396        -0.338574         0.040033
 C        -0.914542         0.441004         0.765756
 C        -1.315569         2.008511         0.717439
 C        -2.267128         1.301576         1.750367
 C        -1.096502         0.526084         2.373332
 O        -3.566683         1.774206         2.057149
 C        -4.259154         1.503442         0.823404
 C        -3.601014         0.597952        -0.134177
 C        -2.452393         0.089390         0.688447
 H         0.931498        -0.036263         0.354382
 H        -0.664712         2.661739         1.142935
 H        -1.928962         2.303476        -0.104043
 H        -0.341558         1.151096         2.875140
 H        -1.577232        -0.486789         2.810435
 H        -5.282527         1.007104         1.077350
 H        -4.435623         2.481313         0.413455
 H        -4.243951        -0.259791        -0.547269
 H        -3.277110         1.174581        -1.016861
 H        -2.740475        -0.789189         1.257660
