19
Iteration:  1606
 O         0.074985        -0.188220         0.110792
 C        -0.973607         0.343820         0.751266
 C        -1.413239         1.883687         0.665788
 C        -2.281278         1.207045         1.720983
 C        -1.041554         0.579203         2.414424
 O        -3.544712         1.653073         2.150650
 C        -4.244926         1.712378         0.758220
 C        -3.550351         0.611232        -0.156862
 C        -2.460710        -0.010919         0.663250
 H         0.849240         0.472043         0.135899
 H        -0.708860         2.616691         1.046061
 H        -1.963340         2.321839        -0.194788
 H        -0.378720         1.379358         2.874236
 H        -1.362295        -0.284224         2.864283
 H        -5.169589         1.312283         0.898311
 H        -4.155076         2.717039         0.331092
 H        -4.357332        -0.136651        -0.306183
 H        -3.316604         0.951418        -1.127760
 H        -2.998037        -0.920057         1.130595
