19
Iteration:  1802charge 0 multiplicity 1
 O         0.123374        -0.263167         0.024222
 C        -0.926800         0.392739         0.706504
 C        -1.261005         1.914785         0.712849
 C        -2.285630         1.222110         1.710880
 C        -1.162777         0.529190         2.402125
 O        -3.529250         1.917936         2.037314
 C        -4.400673         1.421952         0.933918
 C        -3.541508         0.664920        -0.187246
 C        -2.457322         0.051866         0.728391
 H         0.974643        -0.283823         0.518144
 H        -0.679902         2.713528         1.093807
 H        -1.782360         2.274972        -0.196582
 H        -0.360825         1.080404         3.016090
 H        -1.463724        -0.304831         2.915282
 H        -5.287178         0.852229         1.298405
 H        -5.067603         2.231983         0.490339
 H        -4.129871        -0.032589        -0.772761
 H        -3.205849         1.349425        -0.895959
 H        -2.736766        -0.930372         1.089928
