19
Iteration:  3128charge 0 multiplicity 1
 O         0.035290        -0.265844         0.065851
 C        -0.880208         0.475171         0.839314
 C        -1.225415         1.989631         0.690484
 C        -2.263945         1.257139         1.650264
 C        -1.067956         0.578998         2.452931
 O        -3.490970         1.741327         2.052801
 C        -4.469878         1.493349         0.772289
 C        -3.637497         0.567560        -0.162768
 C        -2.448474         0.118772         0.697212
 H         0.471824        -0.975818         0.502183
 H        -0.380129         2.703807         0.984854
 H        -1.565416         2.251858        -0.305277
 H        -0.333317         1.065697         3.040478
 H        -1.351789        -0.364806         2.857844
 H        -5.214638         0.984870         1.299518
 H        -4.706717         2.597650         0.463768
 H        -4.284051        -0.223578        -0.566735
 H        -3.364566         1.167699        -1.136859
 H        -2.724604        -0.783538         1.316936
