19
Iteration:  2431charge 0 multiplicity 1
 O         0.145330        -0.348160         0.261527
 C        -0.926435         0.422109         0.704637
 C        -1.184407         2.036197         0.717895
 C        -2.242627         1.311617         1.613802
 C        -1.175342         0.455579         2.270616
 O        -3.496357         1.846299         2.017010
 C        -4.490311         1.391069         1.027317
 C        -3.617000         0.655774        -0.148798
 C        -2.463963         0.116551         0.613833
 H         0.488869         0.045539        -0.520263
 H        -0.333243         2.487100         1.276241
 H        -1.466039         2.619862        -0.217485
 H        -0.393076         1.047930         2.752319
 H        -1.655298        -0.567152         2.826581
 H        -5.225745         0.728699         1.449848
 H        -4.949330         2.335731         0.643919
 H        -4.190668        -0.201142        -0.741083
 H        -3.263570         1.431953        -0.974051
 H        -2.854927        -0.771288         1.096081
