19
Iteration:  3736charge 0 multiplicity 1
 O         0.236594        -0.169602         0.183103
 C        -0.885804         0.409473         0.730447
 C        -1.405410         1.867998         0.715444
 C        -2.295528         1.200535         1.656695
 C        -1.144699         0.554216         2.351103
 O        -3.484839         1.806699         2.009333
 C        -4.262348         1.695069         0.776300
 C        -3.745428         0.450501        -0.000395
 C        -2.443985         0.016290         0.755725
 H         0.201326         0.061902        -0.775307
 H        -0.876316         2.761260         1.065759
 H        -1.809037         1.937417        -0.325866
 H        -0.479842         1.281253         2.767403
 H        -1.416886        -0.348289         2.766413
 H        -5.303475         1.539436         1.019907
 H        -4.153680         2.569259         0.074800
 H        -4.458023        -0.343325        -0.101342
 H        -3.642162         0.738436        -1.120907
 H        -2.546000        -0.924448         1.371339
