19
Iteration:  3316
 O         0.251745        -0.283819         0.245557
 C        -0.844538         0.424428         0.734422
 C        -1.173962         1.936866         0.674797
 C        -2.237141         1.368600         1.632113
 C        -1.267447         0.455029         2.320665
 O        -3.438220         1.952605         1.962463
 C        -4.499214         1.236804         1.041632
 C        -3.771085         0.691102        -0.172288
 C        -2.444559         0.192277         0.560821
 H        -0.014327        -1.148941         0.562076
 H        -0.443531         2.649348         1.146653
 H        -1.583634         2.376709        -0.286359
 H        -0.432759         0.778839         2.947956
 H        -1.718986        -0.412322         2.704553
 H        -4.645382         0.497568         1.761182
 H        -5.366098         1.930249         0.793384
 H        -4.309033         0.033154        -0.934079
 H        -3.449913         1.536151        -0.833543
 H        -2.848580        -0.793836         0.934717
