19
Iteration:  2474
 O         0.154237        -0.280152         0.161755
 C        -0.950102         0.368864         0.729757
 C        -1.248893         1.907513         0.695320
 C        -2.316831         1.281147         1.631666
 C        -1.089009         0.556821         2.397678
 O        -3.537929         1.752094         2.076934
 C        -4.423271         1.487133         0.909771
 C        -3.503885         0.723072        -0.170159
 C        -2.475942         0.076093         0.679841
 H        -0.145395        -0.525410        -0.732582
 H        -0.695781         2.782743         1.130768
 H        -1.716561         2.376893        -0.242695
 H        -0.370508         1.169526         2.854434
 H        -1.493166        -0.412546         2.930430
 H        -5.222866         0.974985         1.411049
 H        -4.821262         2.420893         0.457130
 H        -4.137952         0.013705        -0.814304
 H        -3.182992         1.425914        -0.907588
 H        -2.636110        -0.793630         1.249395
