19
Iteration:  4205charge 0 multiplicity 1
 O         0.075507        -0.284607         0.247753
 C        -0.924577         0.418422         0.773064
 C        -1.142680         1.940465         0.562264
 C        -2.208724         1.353379         1.641952
 C        -1.059125         0.614676         2.358467
 O        -3.551870         1.853876         1.944717
 C        -4.525487         1.240711         1.053260
 C        -3.604703         0.623229        -0.124627
 C        -2.440686         0.214201         0.605738
 H        -0.102754        -1.197966         0.237526
 H        -0.345906         2.633904         0.937621
 H        -1.528866         2.281440        -0.399093
 H        -0.254926         1.325285         2.656307
 H        -1.347202        -0.282136         2.936437
 H        -5.106710         0.498643         1.618364
 H        -5.269274         2.037792         0.610184
 H        -4.035532        -0.162019        -0.788628
 H        -3.475895         1.424646        -0.905877
 H        -2.699390        -0.724324         1.211584
