19
Iteration:  4515
 O         0.149296        -0.251743         0.142792
 C        -0.869883         0.402726         0.741811
 C        -1.242482         1.973382         0.730325
 C        -2.249493         1.295917         1.557398
 C        -1.158034         0.572532         2.335598
 O        -3.475156         1.906818         1.942256
 C        -4.474789         1.466256         0.982327
 C        -3.677153         0.471218        -0.078770
 C        -2.382967         0.090318         0.713629
 H        -0.101571        -1.096882        -0.162332
 H        -0.632747         2.848583         1.069242
 H        -1.480157         2.307172        -0.304351
 H        -0.518828         1.194553         2.950807
 H        -1.367450        -0.351647         2.913244
 H        -5.250860         1.059291         1.637780
 H        -5.010170         2.279429         0.460780
 H        -4.248622        -0.409790        -0.293623
 H        -3.488946         1.034609        -1.112426
 H        -2.682754        -0.810429         1.323490
