19
Iteration:  4777
 O         0.119487        -0.223096         0.104297
 C        -0.858263         0.408597         0.803537
 C        -1.429899         1.846667         0.567592
 C        -2.274998         1.241108         1.619975
 C        -1.022460         0.586436         2.462378
 O        -3.458719         1.857736         2.053245
 C        -4.339659         1.647225         0.815780
 C        -3.724508         0.461420        -0.064257
 C        -2.476861        -0.043095         0.749428
 H         0.869918         0.413334        -0.020858
 H        -0.882620         2.766677         0.833151
 H        -1.870911         1.974216        -0.404333
 H        -0.445842         1.368640         2.907730
 H        -1.224729        -0.335920         2.973676
 H        -5.342807         1.366484         1.210472
 H        -4.395978         2.651746         0.148958
 H        -4.320599        -0.342162        -0.228892
 H        -3.399343         0.985127        -1.023592
 H        -2.700807        -0.991356         1.267851
