19
Iteration:  4804
 O         0.159223        -0.224317         0.221698
 C        -0.959037         0.405951         0.669050
 C        -1.198527         1.887218         0.604172
 C        -2.271803         1.319062         1.561674
 C        -1.099470         0.591676         2.303442
 O        -3.505583         1.802082         2.103617
 C        -4.356394         1.576493         0.815155
 C        -3.718950         0.435663         0.012408
 C        -2.535538         0.062309         0.768792
 H         0.586563         0.381200        -0.408657
 H        -0.460955         2.585386         0.981437
 H        -1.513075         2.319335        -0.388528
 H        -0.369536         1.268067         2.833883
 H        -1.262314        -0.330669         2.959951
 H        -5.355900         1.301870         1.125403
 H        -4.368465         2.399584         0.220850
 H        -4.432819        -0.563292         0.018242
 H        -3.579167         0.793984        -0.977565
 H        -2.689150        -0.945156         1.254448
