19
Iteration:   920charge 0 multiplicity 1
 O         0.172305        -0.256120         0.098598
 C        -0.892488         0.389411         0.746323
 C        -1.320352         1.911570         0.664549
 C        -2.319656         1.251925         1.673034
 C        -1.100089         0.459459         2.326422
 O        -3.578121         1.820424         2.110214
 C        -4.381071         1.499311         0.888218
 C        -3.535679         0.680770        -0.186418
 C        -2.523039         0.054854         0.730377
 H         0.920182         0.260743         0.321080
 H        -0.733110         2.653607         1.312811
 H        -1.702089         2.362299        -0.291730
 H        -0.411864         1.111958         2.933011
 H        -1.177647        -0.442685         2.837468
 H        -5.264332         0.885293         1.155415
 H        -4.672056         2.488459         0.515818
 H        -4.148825        -0.019334        -0.862837
 H        -3.120310         1.353264        -0.945014
 H        -2.993513        -0.859375         1.208041
