19
Iteration:  2713charge 0 multiplicity 1
 O         0.203154        -0.378696         0.204163
 C        -0.864975         0.427699         0.777154
 C        -1.137641         1.995190         0.683167
 C        -2.264800         1.359833         1.628599
 C        -1.197668         0.501787         2.344368
 O        -3.534917         1.831216         2.049529
 C        -4.463467         1.296637         0.991459
 C        -3.677340         0.733268        -0.210608
 C        -2.490600         0.180876         0.609630
 H         0.094169        -0.536647        -0.718276
 H        -0.340508         2.534692         1.216232
 H        -1.318209         2.449012        -0.312641
 H        -0.524703         1.137042         2.814794
 H        -1.515721        -0.391854         3.004177
 H        -4.940596         0.390783         1.431091
 H        -4.970950         2.125020         0.604110
 H        -4.445362         0.059597        -0.727580
 H        -3.391176         1.603125        -0.802070
 H        -2.838559        -0.757234         1.185102
