19
Iteration:  2854charge 0 multiplicity 1
 O         0.032501        -0.185437         0.053142
 C        -0.893726         0.469822         0.807469
 C        -1.270590         1.925954         0.681099
 C        -2.294773         1.174145         1.717080
 C        -1.035986         0.593973         2.309928
 O        -3.631970         1.690388         2.065810
 C        -4.247249         1.677263         0.807248
 C        -3.616981         0.528860        -0.094704
 C        -2.461956        -0.005548         0.701760
 H         0.613898        -0.588564         0.691094
 H        -0.613179         2.602629         1.104138
 H        -1.675889         2.363677        -0.219051
 H        -0.338312         1.285000         2.795865
 H        -1.185108        -0.397983         2.988873
 H        -5.361710         1.427577         0.988282
 H        -4.097653         2.676682         0.470722
 H        -4.448453        -0.198704        -0.418050
 H        -3.258477         1.020423        -1.007906
 H        -2.857021        -0.850557         1.175318
