19
Iteration:  3742
 O         0.254033        -0.129877         0.195185
 C        -0.908382         0.406860         0.740989
 C        -1.361303         1.809648         0.606745
 C        -2.320591         1.199520         1.674319
 C        -1.138977         0.579314         2.397882
 O        -3.461060         1.819556         2.058850
 C        -4.283547         1.681236         0.768204
 C        -3.745537         0.450638        -0.049775
 C        -2.463144         0.007219         0.718299
 H         0.291205         0.090282        -0.803615
 H        -0.660381         2.582220         1.016554
 H        -1.925726         2.165211        -0.275669
 H        -0.440551         1.159099         3.108228
 H        -1.443012        -0.457062         2.916072
 H        -5.383593         1.680211         0.998967
 H        -4.236030         2.548446         0.118709
 H        -4.463951        -0.431887         0.064604
 H        -3.801077         0.738515        -1.067728
 H        -2.619112        -0.926012         1.221403
