19
Iteration:  2048
 O         0.074771        -0.300389         0.176266
 C        -0.899971         0.427226         0.798545
 C        -1.103263         1.957653         0.753216
 C        -2.245259         1.308091         1.645003
 C        -1.133460         0.441538         2.359952
 O        -3.515569         1.818234         1.952557
 C        -4.476661         1.368787         0.961071
 C        -3.652654         0.638735        -0.199845
 C        -2.475663         0.213167         0.595353
 H         0.602430         0.437018        -0.310678
 H        -0.365818         2.532812         1.276051
 H        -1.308948         2.318227        -0.217190
 H        -0.399822         0.917158         3.000209
 H        -1.622066        -0.398709         3.010749
 H        -5.073443         0.658319         1.572237
 H        -4.943915         2.398849         0.793789
 H        -4.340031        -0.148129        -0.488288
 H        -3.501651         1.316353        -1.046172
 H        -2.813142        -0.785932         1.019503
