19
Iteration:  3969charge 0 multiplicity 1
 O         0.067174        -0.283267         0.109944
 C        -0.941296         0.442919         0.743818
 C        -1.249356         1.948973         0.627182
 C        -2.319208         1.373199         1.688765
 C        -1.004902         0.584950         2.350320
 O        -3.548777         1.855359         2.000273
 C        -4.457792         1.343980         0.862629
 C        -3.499681         0.569991        -0.125663
 C        -2.455660         0.139510         0.810842
 H         0.164188        -1.146101         0.494580
 H        -0.550071         2.761597         0.870792
 H        -1.778871         2.228331        -0.260218
 H        -0.321765         1.248985         2.802043
 H        -1.171626        -0.355437         2.884402
 H        -5.174444         0.602419         1.355320
 H        -4.984051         2.221881         0.387643
 H        -4.131741        -0.227550        -0.639367
 H        -3.136243         1.208114        -0.994334
 H        -2.737531        -0.733191         1.473277
