19
Iteration:  4195charge 0 multiplicity 1
 O         0.091280        -0.288872         0.193635
 C        -0.944570         0.436291         0.786354
 C        -1.144353         1.904984         0.636645
 C        -2.340602         1.365394         1.590218
 C        -1.072386         0.663046         2.287918
 O        -3.537503         1.908543         1.993785
 C        -4.468121         1.195947         1.019485
 C        -3.603866         0.630911        -0.184172
 C        -2.424254         0.145180         0.718302
 H        -0.230035        -1.200082         0.035176
 H        -0.268039         2.483724         1.110489
 H        -1.361410         2.280220        -0.387819
 H        -0.220047         1.293326         2.694256
 H        -1.172713        -0.148490         3.076878
 H        -5.025222         0.470089         1.587927
 H        -5.125677         2.028727         0.553079
 H        -4.144253        -0.144409        -0.690379
 H        -3.276697         1.480041        -0.851455
 H        -2.722495        -0.753276         1.249567
