19
Iteration:   124charge 0 multiplicity 1
 O         0.100994        -0.153071         0.133848
 C        -0.937527         0.364430         0.830911
 C        -1.224597         1.879439         0.778545
 C        -2.344681         1.099780         1.674055
 C        -1.251828         0.354588         2.307387
 O        -3.528165         1.812655         2.049763
 C        -4.372348         1.540140         0.907791
 C        -3.445281         0.799650        -0.254134
 C        -2.471995         0.078552         0.657907
 H         0.718669         0.524043         0.130550
 H        -0.612368         2.641606         1.330403
 H        -1.525825         2.190217        -0.163928
 H        -0.610762         0.933341         3.024079
 H        -1.493934        -0.515769         2.815314
 H        -5.134283         0.819279         1.147999
 H        -4.799705         2.470939         0.450915
 H        -3.977603         0.066173        -0.898526
 H        -3.013063         1.638956        -0.893434
 H        -2.803085        -0.929292         0.926278
