19
Iteration:  2494
 O         0.102250        -0.204022         0.169653
 C        -0.938247         0.447073         0.766344
 C        -1.317055         1.997480         0.722737
 C        -2.323624         1.195876         1.702321
 C        -1.098005         0.465405         2.313467
 O        -3.504810         1.816239         2.038952
 C        -4.300233         1.515345         0.858745
 C        -3.540542         0.642392        -0.176829
 C        -2.507262         0.028356         0.755709
 H        -0.313947        -0.682594        -0.511652
 H        -0.344491         2.465542         0.979048
 H        -1.634140         2.613155        -0.211553
 H        -0.405943         1.074281         2.761004
 H        -1.317023        -0.514572         2.736114
 H        -5.270627         0.996574         1.175598
 H        -4.630088         2.472726         0.473455
 H        -4.150858        -0.144908        -0.668106
 H        -3.248036         1.181587        -0.988436
 H        -2.604947        -0.959889         1.250416
