19
Iteration:   767
 O         0.061658        -0.354924         0.102812
 C        -0.891291         0.481346         0.715330
 C        -1.181182         2.036676         0.758858
 C        -2.303783         1.301779         1.716822
 C        -1.223096         0.499724         2.394161
 O        -3.552602         1.712229         2.069842
 C        -4.370605         1.473981         0.870446
 C        -3.581222         0.568269        -0.221499
 C        -2.409979         0.183843         0.716642
 H         0.789629         0.090870        -0.379084
 H        -0.488385         2.721716         1.256540
 H        -1.627532         2.509563        -0.233420
 H        -0.472798         1.070653         2.949956
 H        -1.426436        -0.511541         2.691044
 H        -5.297085         1.186772         1.393237
 H        -4.653500         2.422554         0.365115
 H        -4.197180        -0.356185        -0.532991
 H        -3.324363         1.281227        -1.090406
 H        -2.579888        -0.890402         1.048053
