19
Iteration:   262charge 0 multiplicity 1
 O         0.173009        -0.214591         0.152954
 C        -0.908672         0.450379         0.684268
 C        -1.242652         2.034398         0.834363
 C        -2.301138         1.208538         1.641652
 C        -1.231242         0.470205         2.345069
 O        -3.583889         1.609857         2.100251
 C        -4.345176         1.710176         0.900163
 C        -3.608591         0.571710        -0.253218
 C        -2.440399         0.098173         0.565548
 H         0.495974        -1.022337         0.693556
 H        -0.349797         2.474339         1.434804
 H        -1.560192         2.674005         0.038415
 H        -0.536387         1.002691         3.028810
 H        -1.386160        -0.482071         2.757512
 H        -5.393011         1.471140         1.133271
 H        -4.254956         2.723360         0.592115
 H        -4.268123        -0.165825        -0.545315
 H        -3.341566         1.171773        -1.067632
 H        -2.563463        -0.900127         0.899324
