19
Iteration:   916charge 0 multiplicity 1
 O         0.136471        -0.264463         0.095765
 C        -0.875952         0.446272         0.753684
 C        -1.327443         1.932906         0.665359
 C        -2.292951         1.196327         1.655056
 C        -1.098517         0.467768         2.344045
 O        -3.568751         1.798149         2.092493
 C        -4.360833         1.510702         0.853202
 C        -3.547006         0.676258        -0.169366
 C        -2.541233         0.063876         0.753561
 H         0.928295         0.328085         0.343888
 H        -0.776588         2.632464         1.187989
 H        -1.771078         2.360643        -0.247006
 H        -0.378409         0.998929         2.956177
 H        -1.283033        -0.580529         2.846375
 H        -5.231562         0.941043         1.239705
 H        -4.689361         2.479395         0.456223
 H        -4.067775         0.036297        -0.766640
 H        -3.069105         1.325662        -0.921330
 H        -2.883738        -0.799533         1.259620
