19
Iteration:  4987charge 0 multiplicity 1
 O         0.059860        -0.243073         0.203565
 C        -0.955031         0.398827         0.752550
 C        -1.268046         1.871737         0.576553
 C        -2.229301         1.317406         1.649385
 C        -1.106832         0.629257         2.364017
 O        -3.455268         1.843474         2.017104
 C        -4.458515         1.413058         0.996940
 C        -3.564179         0.648076        -0.159657
 C        -2.455339         0.021723         0.737291
 H        -0.013032        -0.647415        -0.723835
 H        -0.552689         2.604136         0.940719
 H        -1.566630         2.289340        -0.409162
 H        -0.248476         1.188028         2.752157
 H        -1.353255        -0.238685         2.962664
 H        -5.339244         0.772226         1.357615
 H        -4.875344         2.456328         0.691335
 H        -4.126359        -0.171759        -0.623240
 H        -3.142041         1.307000        -0.946370
 H        -2.670318        -0.966927         1.105362
