19
Iteration:  4904charge 0 multiplicity 1
 O         0.070014        -0.276490         0.009543
 C        -0.872485         0.389046         0.791924
 C        -1.200931         1.971873         0.641394
 C        -2.268977         1.276875         1.666404
 C        -1.039737         0.595152         2.371647
 O        -3.534603         1.884616         2.008010
 C        -4.443060         1.522102         0.913664
 C        -3.682050         0.443003        -0.079673
 C        -2.464169         0.088160         0.723569
 H         0.711847        -0.564501         0.631894
 H        -0.535171         2.710491         1.192663
 H        -1.553864         2.292058        -0.337908
 H        -0.438082         1.332010         2.965079
 H        -1.219018        -0.343160         2.997822
 H        -5.364031         1.109354         1.299192
 H        -4.701361         2.389480         0.386481
 H        -4.407996        -0.391133        -0.490136
 H        -3.333179         0.944047        -0.990918
 H        -2.732840        -0.843676         1.344380
