19
Iteration:  1951charge 0 multiplicity 1
 O         0.017875        -0.281328         0.069538
 C        -0.971070         0.478472         0.766766
 C        -1.295744         2.040537         0.770557
 C        -2.291043         1.186964         1.714271
 C        -1.059769         0.513726         2.312203
 O        -3.549164         1.687860         2.074043
 C        -4.280625         1.623942         0.713263
 C        -3.626703         0.526994        -0.085073
 C        -2.445484         0.111671         0.716771
 H         0.926783         0.185153         0.206696
 H        -0.472776         2.478769         1.415204
 H        -1.578776         2.416850        -0.228409
 H        -0.382959         1.122058         2.888318
 H        -1.342100        -0.363859         2.891171
 H        -5.265889         1.490414         1.075142
 H        -4.070149         2.586536         0.235604
 H        -4.214487        -0.470165        -0.088095
 H        -3.398436         0.950020        -1.084962
 H        -2.727748        -0.897526         1.119363
