19
Iteration:  4762charge 0 multiplicity 1
 O         0.112328        -0.260612         0.026480
 C        -0.908510         0.438317         0.809591
 C        -1.355245         1.822663         0.578622
 C        -2.344775         1.192539         1.811214
 C        -1.004842         0.641082         2.296413
 O        -3.572504         1.849361         2.042132
 C        -4.323086         1.584588         0.783294
 C        -3.609425         0.535307        -0.091677
 C        -2.481889         0.042238         0.875482
 H         0.922823         0.130023         0.258109
 H        -0.682528         2.704009         0.822175
 H        -1.862745         2.018957        -0.414543
 H        -0.201779         1.258160         2.794713
 H        -1.057324        -0.235750         3.045276
 H        -5.366666         1.354550         1.031585
 H        -4.292444         2.552230         0.279152
 H        -4.402467        -0.315717        -0.233918
 H        -3.376651         0.772712        -1.086151
 H        -2.652342        -0.945393         1.286414
