19
Iteration:  4226
 O         0.221087        -0.339121         0.199478
 C        -0.826262         0.489559         0.746713
 C        -1.242383         1.970135         0.571546
 C        -2.318276         1.351351         1.568535
 C        -1.174429         0.585924         2.340071
 O        -3.465008         1.871730         1.981699
 C        -4.443945         1.267684         1.034055
 C        -3.737816         0.677093        -0.155470
 C        -2.441208         0.142136         0.711392
 H         0.176894        -1.177069         0.731738
 H        -0.488384         2.672362         0.903971
 H        -1.547063         2.269696        -0.388739
 H        -0.443147         1.091163         2.992877
 H        -1.561203        -0.310685         2.714318
 H        -4.952881         0.464574         1.623106
 H        -5.152980         2.075697         0.690560
 H        -4.435972        -0.078696        -0.644902
 H        -3.507036         1.273487        -1.074154
 H        -2.627653        -0.802320         1.379757
