19
Iteration:   270
 O         0.150051        -0.244713         0.109265
 C        -0.930173         0.519813         0.762074
 C        -1.168744         2.038700         0.838770
 C        -2.314782         1.144094         1.636983
 C        -1.194312         0.478358         2.380055
 O        -3.591935         1.626275         2.117953
 C        -4.381516         1.691619         0.909882
 C        -3.601668         0.589830        -0.244957
 C        -2.378885         0.101969         0.515711
 H        -0.001787        -1.092414         0.705460
 H        -0.534819         2.597247         1.466002
 H        -1.457172         2.655456        -0.079273
 H        -0.562175         1.178352         2.896706
 H        -1.351704        -0.546395         2.825608
 H        -5.433378         1.433563         1.123373
 H        -4.436376         2.618417         0.323925
 H        -4.187653        -0.272944        -0.733783
 H        -3.354131         1.260359        -1.099164
 H        -2.630761        -0.915068         0.987201
