19
Iteration:  1603charge 0 multiplicity 1
 O         0.084166        -0.180619         0.095589
 C        -0.984807         0.344048         0.769453
 C        -1.436513         1.883405         0.665633
 C        -2.258015         1.214834         1.708400
 C        -1.054228         0.576655         2.426263
 O        -3.531610         1.642598         2.144674
 C        -4.220568         1.706286         0.754268
 C        -3.570522         0.606771        -0.180675
 C        -2.466763         0.003116         0.699062
 H         0.834986         0.454150         0.083458
 H        -0.657682         2.586923         1.056377
 H        -1.908210         2.315406        -0.145665
 H        -0.356900         1.379806         2.853921
 H        -1.451940        -0.314571         3.049598
 H        -5.294721         1.298728         0.982614
 H        -4.093015         2.761692         0.299159
 H        -4.317900        -0.193333        -0.337588
 H        -3.407416         0.975308        -1.179192
 H        -2.954681        -0.892052         1.023345
