19
Iteration:  4538
 O         0.177137        -0.227735         0.156701
 C        -0.919285         0.443113         0.753693
 C        -1.189665         1.924210         0.612411
 C        -2.247500         1.341047         1.651753
 C        -1.076918         0.497525         2.384493
 O        -3.530285         1.982610         1.929196
 C        -4.437169         1.335603         0.941048
 C        -3.677882         0.543303        -0.100739
 C        -2.489973         0.108859         0.773828
 H        -0.287600        -0.942149        -0.359701
 H        -0.335670         2.577246         0.920715
 H        -1.592087         2.424189        -0.275987
 H        -0.229078         0.953737         2.936920
 H        -1.390801        -0.427214         2.916444
 H        -5.117945         0.737525         1.584820
 H        -5.072887         2.012034         0.409507
 H        -4.310224        -0.291053        -0.440819
 H        -3.394926         1.132720        -1.000447
 H        -2.813264        -0.768641         1.370493
