19
Iteration:  3033charge 0 multiplicity 1
 O         0.253372        -0.176643         0.160403
 C        -0.931098         0.365774         0.779435
 C        -1.139857         1.955735         0.747331
 C        -2.251800         1.312353         1.620664
 C        -1.275818         0.483472         2.279667
 O        -3.429009         1.930199         1.945877
 C        -4.451878         1.394827         1.084376
 C        -3.720683         0.533186        -0.225982
 C        -2.534824         0.171816         0.629934
 H         0.176453        -1.100493         0.356781
 H        -0.261470         2.436338         1.234089
 H        -1.412471         2.331051        -0.224051
 H        -0.357580         1.057265         2.896920
 H        -1.625365        -0.447472         2.772749
 H        -5.068529         0.565889         1.817618
 H        -5.070889         2.171801         0.622405
 H        -4.314622        -0.275044        -0.573882
 H        -3.405243         1.114493        -1.154551
 H        -2.834134        -0.704550         1.194611
