19
Iteration:  2163charge 0 multiplicity 1
 O         0.107953        -0.220794         0.211160
 C        -0.950793         0.484469         0.815121
 C        -1.215349         1.922575         0.663425
 C        -2.349705         1.216170         1.736375
 C        -1.033271         0.455366         2.346532
 O        -3.541850         1.725444         2.078793
 C        -4.380847         1.600180         0.850835
 C        -3.576102         0.613895        -0.238503
 C        -2.486746         0.097354         0.676330
 H         0.067300        -0.232202        -0.808108
 H        -0.422235         2.617023         1.111982
 H        -1.611080         2.297062        -0.356522
 H        -0.167529         0.914946         2.842815
 H        -1.141785        -0.577095         2.779912
 H        -5.294561         1.016790         1.055553
 H        -4.539739         2.587998         0.487058
 H        -4.429149        -0.197626        -0.479497
 H        -3.394149         1.355030        -1.095531
 H        -2.872922        -0.741313         1.267730
