19
Iteration:  2675charge 0 multiplicity 1
 O         0.073176        -0.268798         0.191938
 C        -0.983255         0.392119         0.816089
 C        -1.273811         1.942741         0.743673
 C        -2.296809         1.266337         1.659076
 C        -1.037100         0.438115         2.363154
 O        -3.480180         1.870876         1.962218
 C        -4.348803         1.382293         0.891033
 C        -3.631274         0.684215        -0.175287
 C        -2.479071         0.083504         0.664142
 H         0.274648         0.313901        -0.604808
 H        -0.482545         2.593500         1.150174
 H        -1.572782         2.337049        -0.210813
 H        -0.193679         1.167345         2.832494
 H        -1.161234        -0.407304         3.028585
 H        -5.194917         0.921441         1.343728
 H        -4.986986         2.251825         0.532284
 H        -4.216078         0.031301        -0.789318
 H        -3.220106         1.410523        -0.927801
 H        -2.796154        -0.734128         1.274658
