19
Iteration:  1784
 O         0.074324        -0.286381         0.099584
 C        -0.920005         0.444904         0.808262
 C        -1.280178         1.968212         0.726693
 C        -2.297117         1.338505         1.670838
 C        -1.123049         0.435005         2.309540
 O        -3.460177         1.850258         1.946700
 C        -4.434514         1.389931         0.955603
 C        -3.634633         0.664333        -0.126017
 C        -2.427317         0.103035         0.640931
 H         0.886846        -0.100935         0.647930
 H        -0.445412         2.480451         1.319585
 H        -1.562822         2.440641        -0.218739
 H        -0.469414         1.058328         2.863846
 H        -1.209653        -0.589538         2.836029
 H        -5.112160         0.628590         1.420002
 H        -4.996705         2.222528         0.452245
 H        -4.191363        -0.117532        -0.621408
 H        -3.242133         1.427063        -0.883565
 H        -2.748055        -0.799991         1.239900
