19
Iteration:   850charge 0 multiplicity 1
 O         0.031271        -0.107634         0.018937
 C        -0.977262         0.429358         0.757206
 C        -1.282726         1.945349         0.747948
 C        -2.277808         1.179088         1.704481
 C        -1.063658         0.452563         2.452441
 O        -3.626067         1.673077         1.980622
 C        -4.226927         1.746379         0.746814
 C        -3.628914         0.495652        -0.039750
 C        -2.412463         0.043300         0.748655
 H         0.891188         0.221282         0.254410
 H        -0.564962         2.588180         1.173515
 H        -1.735956         2.359070        -0.150919
 H        -0.285792         0.855258         3.070657
 H        -1.325296        -0.581254         2.891055
 H        -5.315609         1.618214         0.855781
 H        -4.011122         2.575173         0.067466
 H        -4.301857        -0.265394        -0.113778
 H        -3.426568         0.735205        -1.080962
 H        -2.642221        -0.858550         1.258004
