19
Iteration:  4005charge 0 multiplicity 1
 O         0.097686        -0.094796        -0.019757
 C        -0.935936         0.450142         0.714939
 C        -1.183731         1.873034         0.702062
 C        -2.299892         1.253435         1.690932
 C        -1.187777         0.622204         2.466706
 O        -3.490503         1.944929         1.975683
 C        -4.354733         1.472814         0.784159
 C        -3.599407         0.366506        -0.078022
 C        -2.442788         0.000498         0.856119
 H        -0.302189        -0.931546        -0.296598
 H        -0.361053         2.415911         1.181347
 H        -1.668303         2.240252        -0.244234
 H        -0.626351         1.459892         2.876299
 H        -1.195391        -0.171588         3.184404
 H        -5.307884         1.061241         1.422112
 H        -4.706877         2.418750         0.277156
 H        -4.387168        -0.519479        -0.173383
 H        -3.158389         0.761794        -1.015031
 H        -2.607866        -0.991563         1.478167
