19
Iteration:  3526
 O        -0.006449        -0.303701         0.146797
 C        -0.941223         0.436483         0.736351
 C        -1.244852         1.933961         0.702063
 C        -2.255214         1.296996         1.697505
 C        -1.134680         0.618008         2.401706
 O        -3.502538         1.752052         1.995598
 C        -4.346677         1.486705         0.884486
 C        -3.586924         0.603887        -0.209139
 C        -2.439299         0.091712         0.673641
 H         0.885288        -0.110468         0.365317
 H        -0.440995         2.620598         1.031241
 H        -1.669748         2.292798        -0.229580
 H        -0.377982         1.205367         2.781106
 H        -1.414355        -0.203016         3.033594
 H        -5.010793         0.825204         1.380372
 H        -4.738503         2.424317         0.693948
 H        -4.287339        -0.263481        -0.485940
 H        -3.400320         1.013922        -1.154916
 H        -2.682816        -0.797378         1.297594
