19
Iteration:   141
 O         0.068780        -0.262119         0.082507
 C        -0.943317         0.426497         0.764689
 C        -1.285824         1.954028         0.898402
 C        -2.335480         1.258535         1.764820
 C        -1.142534         0.416780         2.486201
 O        -3.556668         1.691083         2.062353
 C        -4.313415         1.564072         0.752344
 C        -3.530214         0.756036        -0.283714
 C        -2.439818         0.054182         0.582566
 H         0.748268         0.269993        -0.235700
 H        -0.493773         2.452753         1.473572
 H        -1.631515         2.555905        -0.024723
 H        -0.309766         0.909438         3.000835
 H        -1.423057        -0.636179         2.827680
 H        -5.250949         1.008515         1.045824
 H        -4.525340         2.577940         0.428946
 H        -4.254242         0.147196        -0.799452
 H        -3.068730         1.377611        -0.984126
 H        -2.766073        -0.899249         1.003015
