19
Iteration:  2349charge 0 multiplicity 1
 O         0.073309        -0.358904         0.215040
 C        -0.871131         0.474637         0.747309
 C        -1.242705         1.985719         0.763893
 C        -2.282222         1.279033         1.654366
 C        -1.176811         0.502437         2.314127
 O        -3.518563         1.825518         2.020211
 C        -4.390881         1.410911         0.955623
 C        -3.583108         0.673828        -0.249842
 C        -2.439920         0.154445         0.680546
 H         0.017627        -0.212731        -0.788294
 H        -0.426957         2.678475         1.142287
 H        -1.718661         2.353481        -0.188541
 H        -0.272182         0.887374         2.992166
 H        -1.271756        -0.628075         2.602325
 H        -5.168839         0.796267         1.497233
 H        -4.879268         2.362225         0.688251
 H        -4.044144        -0.186224        -0.644801
 H        -3.234938         1.326908        -0.982292
 H        -2.698376        -0.817726         1.165833
