19
Iteration:  1184
 O         0.151414        -0.201696         0.069008
 C        -0.919216         0.496666         0.698724
 C        -1.317286         1.960544         0.688127
 C        -2.348542         1.140527         1.725986
 C        -1.219301         0.529466         2.404902
 O        -3.510637         1.709446         2.116149
 C        -4.202011         1.642387         0.830135
 C        -3.675691         0.534196        -0.177068
 C        -2.462616         0.047639         0.732232
 H         0.976036         0.016037         0.470180
 H        -0.491130         2.620604         0.990751
 H        -1.565604         2.294564        -0.304489
 H        -0.665909         1.280498         3.002332
 H        -1.517419        -0.450356         2.693051
 H        -5.239752         1.449505         0.908306
 H        -4.195492         2.592999         0.244067
 H        -4.510622        -0.170151        -0.191307
 H        -3.384179         0.758327        -1.182695
 H        -2.587655        -0.940859         1.208064
