19
Iteration:  3520charge 0 multiplicity 1
 O         0.001230        -0.267515         0.155573
 C        -0.981975         0.426223         0.785128
 C        -1.208573         1.928344         0.656742
 C        -2.260810         1.281216         1.702746
 C        -1.169293         0.577865         2.367007
 O        -3.478628         1.743556         2.019797
 C        -4.357156         1.513831         0.861967
 C        -3.541466         0.579964        -0.147384
 C        -2.435836         0.070971         0.660663
 H         0.892588         0.116550         0.211241
 H        -0.501270         2.724650         0.917401
 H        -1.659169         2.323740        -0.279151
 H        -0.285389         1.237326         2.800973
 H        -1.510483        -0.195115         3.117610
 H        -5.211329         0.879832         1.311276
 H        -4.783950         2.524981         0.433289
 H        -4.326004        -0.134408        -0.212182
 H        -3.442825         1.046308        -1.223752
 H        -2.736793        -0.890960         1.109557
