19
Iteration:  3215charge 0 multiplicity 1
 O         0.156485        -0.095503         0.035233
 C        -0.941742         0.388468         0.681488
 C        -1.315309         1.914009         0.749723
 C        -2.358762         1.198747         1.717644
 C        -1.082886         0.578616         2.385145
 O        -3.617971         1.690754         2.033567
 C        -4.175367         1.753709         0.749312
 C        -3.717712         0.462107        -0.088913
 C        -2.409563        -0.009064         0.841164
 H         0.127892        -1.074971         0.149565
 H        -0.576457         2.659300         1.296424
 H        -1.536303         2.378440        -0.231340
 H        -0.246496         1.093100         2.822438
 H        -1.303510        -0.294202         2.961407
 H        -5.221031         1.745769         0.803438
 H        -4.049573         2.769198         0.287983
 H        -4.549910        -0.230938        -0.222516
 H        -3.286902         0.773941        -1.125116
 H        -2.624016        -0.984854         1.363743
