19
Iteration:  1878
 O         0.037670        -0.258209         0.113694
 C        -0.958225         0.425030         0.778219
 C        -1.331301         1.941935         0.689676
 C        -2.323615         1.230100         1.676038
 C        -1.035329         0.493891         2.439728
 O        -3.518155         1.725531         2.058949
 C        -4.338075         1.625212         0.833731
 C        -3.626510         0.559266        -0.168565
 C        -2.419562         0.094463         0.680713
 H         0.823274         0.330785        -0.072592
 H        -0.705530         2.600548         1.298064
 H        -1.712787         2.172514        -0.335151
 H        -0.103502         1.121416         2.883618
 H        -1.105377        -0.422213         2.915325
 H        -5.415190         1.385946         1.073752
 H        -4.190022         2.631458         0.313428
 H        -4.300683        -0.247474        -0.480417
 H        -3.249686         1.173883        -0.931684
 H        -2.632540        -0.874093         1.056753
