19
Iteration:   139charge 0 multiplicity 1
 O         0.067963        -0.252500         0.090197
 C        -0.944874         0.427618         0.780831
 C        -1.284682         1.942786         0.882096
 C        -2.329839         1.248382         1.745000
 C        -1.144706         0.399926         2.483822
 O        -3.554593         1.713591         2.074200
 C        -4.308983         1.544156         0.753045
 C        -3.521515         0.770850        -0.266336
 C        -2.450242         0.045473         0.567500
 H         0.792743         0.358061        -0.219323
 H        -0.547629         2.461810         1.466528
 H        -1.615402         2.571749        -0.112893
 H        -0.358157         0.945976         2.959046
 H        -1.470550        -0.657450         2.835326
 H        -5.231299         1.016379         1.070262
 H        -4.565311         2.539033         0.456149
 H        -4.304917         0.181620        -0.832825
 H        -3.006975         1.390766        -1.006801
 H        -2.756298        -0.947019         1.040863
