19
Iteration:  2305
 O         0.203819        -0.251696         0.167706
 C        -0.902168         0.415564         0.737727
 C        -1.245400         1.889499         0.657028
 C        -2.305277         1.236327         1.662304
 C        -1.125139         0.529060         2.314439
 O        -3.583970         1.717853         2.119719
 C        -4.330353         1.573555         0.872131
 C        -3.588843         0.630200        -0.176169
 C        -2.504805         0.081018         0.732022
 H        -0.116718        -0.481317        -0.770911
 H        -0.524248         2.580334         1.246513
 H        -1.678174         2.443598        -0.236999
 H        -0.502490         1.373655         2.979871
 H        -1.580744        -0.413074         2.844684
 H        -5.380205         1.234081         1.113690
 H        -4.370794         2.590031         0.428749
 H        -4.325257         0.097585        -0.701711
 H        -3.214922         1.438348        -0.765833
 H        -2.856155        -0.797112         1.310840
