19
Iteration:  4560
 O         0.133336        -0.263841         0.144173
 C        -0.978927         0.370450         0.768533
 C        -1.223273         1.852802         0.623722
 C        -2.307716         1.305609         1.654475
 C        -1.087700         0.689355         2.401718
 O        -3.464069         1.919873         1.894964
 C        -4.464914         1.313602         1.026373
 C        -3.576423         0.643752        -0.118337
 C        -2.483232         0.086936         0.740018
 H        -0.223826        -0.869151        -0.514467
 H        -0.430377         2.488015         1.096601
 H        -1.484968         2.404582        -0.256536
 H        -0.246640         1.294327         2.772995
 H        -1.264018        -0.104335         3.147788
 H        -5.092664         0.503065         1.437459
 H        -5.126950         2.064202         0.700741
 H        -4.073732        -0.097560        -0.773585
 H        -3.176148         1.375665        -0.920266
 H        -2.782497        -0.901823         1.159977
