19
Iteration:   416
 O         0.176526        -0.281849         0.083045
 C        -0.885490         0.403617         0.808634
 C        -1.286630         1.897460         0.722356
 C        -2.348206         1.245357         1.698501
 C        -1.076709         0.492634         2.372522
 O        -3.624765         1.794283         2.038977
 C        -4.409272         1.397441         0.919889
 C        -3.512416         0.873229        -0.293511
 C        -2.451824         0.147759         0.706332
 H         0.172618        -1.105959         0.509496
 H        -0.735531         2.740450         1.208187
 H        -1.610358         2.285952        -0.274525
 H        -0.277443         1.099470         2.857912
 H        -1.407015        -0.361383         3.010612
 H        -4.861450         0.469595         1.318481
 H        -5.160036         2.152841         0.745333
 H        -3.999277         0.116976        -0.812334
 H        -3.102439         1.556114        -1.037583
 H        -2.862598        -0.841229         0.937264
