19
Iteration:  4729charge 0 multiplicity 1
 O        -0.109087        -0.341357         0.043284
 C        -0.917030         0.490467         0.798957
 C        -1.278007         2.043518         0.636833
 C        -2.280437         1.325808         1.719939
 C        -1.076153         0.699200         2.320679
 O        -3.489001         1.685861         2.034135
 C        -4.269709         1.499969         0.815121
 C        -3.623122         0.462384        -0.117265
 C        -2.414042         0.049896         0.838429
 H         0.827465        -0.329108         0.385330
 H        -0.607141         2.807006         1.113825
 H        -1.714492         2.347375        -0.376708
 H        -0.260061         1.363573         2.741470
 H        -1.526647        -0.152676         2.940372
 H        -5.349973         1.394780         1.013043
 H        -4.069966         2.459381         0.264242
 H        -4.211263        -0.495708        -0.288564
 H        -3.222830         0.852460        -0.968327
 H        -2.665159        -0.824008         1.417079
