19
Iteration:   633charge 0 multiplicity 1
 O         0.068708        -0.247868         0.083084
 C        -0.984027         0.452511         0.731175
 C        -1.217349         1.901226         0.629577
 C        -2.301833         1.256228         1.722607
 C        -1.217672         0.565491         2.395224
 O        -3.511762         1.727772         2.036328
 C        -4.380324         1.434403         0.895299
 C        -3.525328         0.749726        -0.146392
 C        -2.431180         0.036041         0.689052
 H         0.898401         0.235012         0.430634
 H        -0.593174         2.467019         1.324584
 H        -1.465023         2.317871        -0.317893
 H        -0.476482         1.057130         2.912866
 H        -1.506254        -0.373840         2.920441
 H        -5.181001         0.797137         1.280079
 H        -4.824182         2.350453         0.569775
 H        -4.140712         0.070648        -0.704648
 H        -2.906135         1.338831        -0.887144
 H        -2.692585        -0.893805         1.192224
