19
Iteration:  2472charge 0 multiplicity 1
 O         0.156465        -0.283947         0.164962
 C        -0.936024         0.360369         0.745647
 C        -1.243994         1.920995         0.688501
 C        -2.308961         1.268384         1.624408
 C        -1.088746         0.546814         2.410631
 O        -3.545971         1.753680         2.080745
 C        -4.437374         1.488005         0.917425
 C        -3.508614         0.730419        -0.190012
 C        -2.478725         0.087287         0.674705
 H        -0.162938        -0.497184        -0.785081
 H        -0.599056         2.766419         1.059993
 H        -1.706553         2.396528        -0.258375
 H        -0.369009         1.154304         2.826863
 H        -1.440661        -0.327353         2.950441
 H        -5.304446         0.968328         1.416442
 H        -4.835322         2.396617         0.488411
 H        -4.073852         0.001474        -0.808459
 H        -3.286491         1.401097        -0.895485
 H        -2.617480        -0.811534         1.260498
