19
Iteration:  3398
 O         0.024436        -0.162982         0.088519
 C        -0.948202         0.486063         0.765602
 C        -1.187045         1.930676         0.659738
 C        -2.319977         1.134776         1.758603
 C        -1.049560         0.572452         2.410740
 O        -3.514721         1.817821         2.079140
 C        -4.358239         1.500544         0.758764
 C        -3.589697         0.613988        -0.241879
 C        -2.490692         0.005759         0.765961
 H        -0.014059        -1.137943         0.419953
 H        -0.497237         2.543958         1.202365
 H        -1.441835         2.294409        -0.287025
 H        -0.428788         1.352666         2.944431
 H        -1.084698        -0.444299         2.964048
 H        -5.326850         1.192646         1.198913
 H        -4.682589         2.442545         0.324863
 H        -4.099222        -0.224518        -0.614799
 H        -3.199388         1.314477        -0.998650
 H        -2.724780        -0.940571         1.265858
