19
Iteration:  3416
 O         0.114234        -0.203744         0.092375
 C        -0.920393         0.433582         0.820404
 C        -1.209381         1.955100         0.693888
 C        -2.336605         1.217880         1.742783
 C        -1.045656         0.589942         2.397700
 O        -3.623041         1.668842         2.020300
 C        -4.337074         1.692198         0.822737
 C        -3.608888         0.503764        -0.147145
 C        -2.429752         0.104507         0.710985
 H        -0.277921        -1.126217        -0.138791
 H        -0.452481         2.624877         1.089214
 H        -1.743463         2.262913        -0.230289
 H        -0.325634         1.270613         2.736481
 H        -1.141747        -0.315542         2.973610
 H        -5.396829         1.414454         0.961553
 H        -4.178635         2.687893         0.386582
 H        -4.425111        -0.313515        -0.363405
 H        -3.261832         0.860265        -1.091957
 H        -2.665079        -0.971911         1.017618
