19
Iteration:  4598
 O         0.108889        -0.382942         0.260687
 C        -0.931060         0.500197         0.725927
 C        -1.197556         1.978437         0.549511
 C        -2.214088         1.351346         1.677946
 C        -1.123591         0.595964         2.346369
 O        -3.530357         1.841517         1.972135
 C        -4.486539         1.301862         0.994531
 C        -3.558631         0.617676        -0.131222
 C        -2.444578         0.207514         0.698820
 H        -0.302863        -0.898421        -0.534800
 H        -0.339837         2.514936         0.977353
 H        -1.637117         2.431811        -0.399316
 H        -0.200420         1.082212         2.792987
 H        -1.464532        -0.324019         2.882926
 H        -5.059812         0.668717         1.719715
 H        -5.101537         2.226743         0.639494
 H        -4.013169        -0.317354        -0.554395
 H        -3.676409         1.204757        -1.081188
 H        -2.645592        -0.759557         1.129272
