19
Iteration:  1323charge 0 multiplicity 1
 O         0.097085        -0.263905         0.125487
 C        -0.907629         0.474491         0.788322
 C        -1.252490         1.905569         0.633730
 C        -2.259761         1.196400         1.727746
 C        -1.144356         0.495944         2.475538
 O        -3.452129         1.839141         1.994614
 C        -4.455566         1.414272         0.956582
 C        -3.635871         0.673055        -0.239322
 C        -2.459928         0.112980         0.587111
 H         0.941618        -0.033457         0.646146
 H        -0.585916         2.741612         1.033064
 H        -1.687189         2.257255        -0.281637
 H        -0.496869         1.206401         3.120707
 H        -1.307494        -0.497595         2.729662
 H        -5.266677         0.819167         1.591943
 H        -4.965548         2.367832         0.655059
 H        -4.284878        -0.094488        -0.910588
 H        -3.322205         1.486820        -0.910030
 H        -2.619197        -0.935652         0.878765
