19
Iteration:  3603
 O         0.199973        -0.225912         0.130658
 C        -0.877971         0.399725         0.776602
 C        -1.146372         1.863286         0.683242
 C        -2.303502         1.334454         1.561140
 C        -1.219376         0.542920         2.392073
 O        -3.496973         1.949046         1.888658
 C        -4.451351         1.341765         1.103958
 C        -3.657487         0.654454        -0.160551
 C        -2.427216         0.099493         0.598736
 H         0.278425        -1.117501         0.609496
 H        -0.550757         2.515318         1.341332
 H        -1.486484         2.232123        -0.253575
 H        -0.662194         1.055907         3.113352
 H        -1.611211        -0.363191         2.789945
 H        -4.974535         0.594683         1.727879
 H        -5.241232         2.013394         0.870437
 H        -4.491762        -0.055652        -0.466428
 H        -3.468490         1.434704        -0.909777
 H        -2.692676        -0.903234         1.026479
