19
Iteration:  1018
 O        -0.004334        -0.260547        -0.000099
 C        -0.859686         0.405765         0.845649
 C        -1.199693         1.914549         0.723404
 C        -2.243716         1.308994         1.628623
 C        -1.175057         0.497201         2.419168
 O        -3.532234         1.884597         1.921183
 C        -4.508725         1.295124         0.948186
 C        -3.511622         0.748605        -0.151712
 C        -2.403163         0.055762         0.732252
 H         0.864837        -0.209955         0.382099
 H        -0.530922         2.626071         1.322691
 H        -1.361038         2.292962        -0.271073
 H        -0.411281         1.191555         2.998511
 H        -1.535174        -0.357030         3.010942
 H        -5.200571         0.575478         1.505501
 H        -5.152744         2.119837         0.538790
 H        -4.119030         0.171438        -0.924568
 H        -3.051348         1.555587        -0.666959
 H        -2.765026        -0.866264         1.243993
