19
Iteration:  3772
 O         0.244580        -0.140297         0.292553
 C        -0.914343         0.417323         0.763178
 C        -1.255652         1.816893         0.547803
 C        -2.331075         1.243216         1.592624
 C        -1.082025         0.580106         2.232007
 O        -3.520139         1.705859         2.058306
 C        -4.328118         1.682222         0.818118
 C        -3.760169         0.470777        -0.012247
 C        -2.537307         0.036941         0.783048
 H         0.536022         0.210128        -0.556511
 H        -0.595442         2.564972         0.940381
 H        -1.644436         2.086430        -0.416337
 H        -0.351199         1.051606         2.797404
 H        -1.295550        -0.279511         2.826470
 H        -5.385961         1.626924         1.159743
 H        -4.206433         2.613353         0.225549
 H        -4.513767        -0.308954        -0.132459
 H        -3.535241         1.049100        -0.982134
 H        -2.754820        -0.841919         1.472985
