19
Iteration:  2456charge 0 multiplicity 1
 O         0.141558        -0.330438         0.192694
 C        -0.868095         0.423831         0.831760
 C        -1.161286         1.927204         0.662782
 C        -2.273372         1.293912         1.721799
 C        -1.082259         0.535758         2.342790
 O        -3.558862         1.736426         2.041994
 C        -4.470087         1.436548         0.931091
 C        -3.699466         0.715335        -0.223980
 C        -2.436921         0.180774         0.647300
 H        -0.004803        -0.130637        -0.767138
 H        -0.338207         2.508632         1.110236
 H        -1.444385         2.139274        -0.313066
 H        -0.351307         1.303058         2.896091
 H        -1.306316        -0.474424         2.855568
 H        -5.245676         0.713201         1.262028
 H        -4.871086         2.448102         0.646594
 H        -4.343483        -0.056068        -0.663358
 H        -3.244254         1.479376        -1.092920
 H        -2.935554        -0.793705         0.992842
