19
Iteration:  2134charge 0 multiplicity 1
 O         0.164800        -0.363306         0.150081
 C        -0.906954         0.458496         0.756028
 C        -1.218321         1.984129         0.798478
 C        -2.307571         1.340096         1.608332
 C        -1.221569         0.547180         2.357050
 O        -3.490029         1.753873         2.020779
 C        -4.483634         1.486172         0.961947
 C        -3.567110         0.636299        -0.138006
 C        -2.361576         0.109972         0.564390
 H         0.033341        -0.560953        -0.817861
 H        -0.441882         2.446043         1.340938
 H        -1.501718         2.460960        -0.077639
 H        -0.547545         1.015955         3.012234
 H        -1.525003        -0.486605         2.811537
 H        -5.291023         0.789308         1.235163
 H        -4.939863         2.451428         0.605003
 H        -4.309507        -0.062475        -0.481132
 H        -3.394885         1.445281        -0.818757
 H        -2.731823        -0.701012         1.193949
