19
Iteration:   425charge 0 multiplicity 1
 O         0.128088        -0.250303         0.115784
 C        -0.946351         0.446519         0.763101
 C        -1.233671         1.942052         0.684106
 C        -2.390984         1.225501         1.768964
 C        -1.052149         0.503385         2.364088
 O        -3.590234         1.804027         2.028322
 C        -4.421501         1.400753         0.867445
 C        -3.459757         0.756330        -0.212389
 C        -2.461318         0.139401         0.676500
 H        -0.054140        -1.159715         0.105453
 H        -0.597582         2.514314         1.396769
 H        -1.343219         2.343206        -0.236729
 H        -0.346621         1.025602         3.040597
 H        -1.324681        -0.347341         2.886974
 H        -5.033935         0.532616         1.202302
 H        -5.054279         2.161326         0.618563
 H        -4.100565         0.185293        -0.864365
 H        -3.083977         1.618589        -0.737938
 H        -2.741139        -0.897460         0.973643
