19
Iteration:  2069
 O         0.149802        -0.315036         0.171963
 C        -0.895048         0.439435         0.721347
 C        -1.162526         1.915050         0.779966
 C        -2.317247         1.275336         1.615844
 C        -1.272017         0.526853         2.337656
 O        -3.458180         1.912151         1.987992
 C        -4.438831         1.323522         0.980077
 C        -3.645596         0.721662        -0.176318
 C        -2.451470         0.068412         0.619250
 H         0.494945         0.152318        -0.554752
 H        -0.404462         2.426483         1.314296
 H        -1.410100         2.395655        -0.119631
 H        -0.594978         1.026180         2.986271
 H        -1.344679        -0.536206         2.812308
 H        -4.826527         0.584203         1.692111
 H        -5.181329         2.082850         0.556767
 H        -4.223605         0.071117        -0.760667
 H        -3.223431         1.584749        -0.637307
 H        -2.820977        -0.787655         1.249356
