19
Iteration:  2899charge 0 multiplicity 1
 O         0.191842        -0.023839         0.123123
 C        -0.988583         0.426148         0.820944
 C        -1.334040         1.868781         0.608919
 C        -2.323964         1.183615         1.651942
 C        -1.111009         0.459438         2.343260
 O        -3.529957         1.785627         2.047242
 C        -4.217274         1.681409         0.793204
 C        -3.716761         0.541878        -0.054663
 C        -2.439090        -0.028157         0.790085
 H        -0.036246        -0.911361        -0.069055
 H        -0.817529         2.689108         1.004533
 H        -1.551072         2.058976        -0.423214
 H        -0.362790         1.100783         2.896611
 H        -1.270829        -0.617321         2.823740
 H        -5.283508         1.542081         1.127928
 H        -3.943003         2.603185         0.326530
 H        -4.419530        -0.319267        -0.194771
 H        -3.458915         0.939955        -1.077121
 H        -2.539502        -1.065983         1.054285
