19
Iteration:  1061
 O         0.072753        -0.280170         0.165076
 C        -0.939592         0.420370         0.854470
 C        -1.234373         2.037741         0.777548
 C        -2.300776         1.273319         1.590983
 C        -1.017894         0.459309         2.309563
 O        -3.491656         1.765592         1.975288
 C        -4.447824         1.494725         0.847955
 C        -3.675493         0.601511        -0.150184
 C        -2.469325         0.089825         0.672484
 H         0.895634         0.158008         0.214171
 H        -0.505609         2.707835         1.298653
 H        -1.413426         2.329832        -0.230231
 H        -0.190819         0.998931         2.975479
 H        -1.307068        -0.485880         2.810868
 H        -5.384226         1.083411         1.358390
 H        -4.676601         2.501695         0.441953
 H        -4.211729        -0.257494        -0.623558
 H        -3.469624         1.277064        -0.933036
 H        -2.678569        -0.810205         1.239178
