19
Iteration:  3073
 O         0.142582        -0.230000         0.159285
 C        -0.909685         0.408217         0.854487
 C        -1.148407         1.884952         0.707759
 C        -2.295118         1.306202         1.645297
 C        -1.078946         0.508933         2.368138
 O        -3.531868         1.927553         1.845681
 C        -4.457412         1.249401         1.045504
 C        -3.608694         0.727467        -0.185593
 C        -2.504742         0.173669         0.655604
 H        -0.000404        -1.196684        -0.048920
 H        -0.297113         2.544489         1.036025
 H        -1.623358         2.062786        -0.249487
 H        -0.283334         1.042776         2.786869
 H        -1.391306        -0.378257         2.911592
 H        -5.049801         0.594326         1.560227
 H        -5.240767         2.052395         0.913713
 H        -4.133409        -0.083077        -0.734211
 H        -3.575425         1.714487        -0.787414
 H        -2.797643        -0.811643         1.067976
