19
Iteration:  3884charge 0 multiplicity 1
 O         0.173997        -0.174666         0.171745
 C        -0.975727         0.393509         0.771650
 C        -1.281342         1.914331         0.683640
 C        -2.258615         1.325371         1.590305
 C        -1.134504         0.503449         2.317945
 O        -3.413627         1.983203         1.840192
 C        -4.406004         1.278988         1.028527
 C        -3.677215         0.593894        -0.114558
 C        -2.465305         0.077456         0.703422
 H         0.563104        -0.865569         0.821545
 H        -0.522688         2.494867         1.204721
 H        -1.614078         2.392129        -0.219466
 H        -0.352587         1.031044         2.826023
 H        -1.535278        -0.289615         2.963398
 H        -5.179790         0.772844         1.623567
 H        -5.119193         1.984395         0.665005
 H        -4.450566        -0.147945        -0.550708
 H        -3.494893         1.360884        -0.873716
 H        -2.730036        -0.905437         1.199311
