19
Iteration:   427
 O         0.112387        -0.237774         0.126328
 C        -0.953718         0.450897         0.757668
 C        -1.216723         1.950768         0.696463
 C        -2.379110         1.220353         1.773444
 C        -1.059659         0.512738         2.364400
 O        -3.580809         1.809003         2.028798
 C        -4.423910         1.384827         0.858030
 C        -3.459207         0.736067        -0.196878
 C        -2.466296         0.128528         0.666637
 H        -0.116049        -1.166782         0.001223
 H        -0.521957         2.470335         1.390409
 H        -1.335321         2.411524        -0.332086
 H        -0.356627         1.062909         3.021815
 H        -1.323815        -0.468493         2.846003
 H        -5.122124         0.575244         1.171175
 H        -5.049758         2.221319         0.547889
 H        -4.073580         0.220573        -0.845854
 H        -3.069278         1.622067        -0.702038
 H        -2.696712        -0.895452         1.017118
