19
Iteration:  3863charge 0 multiplicity 1
 O         0.087566        -0.220802         0.056503
 C        -0.850268         0.460729         0.818884
 C        -1.172427         1.935873         0.639540
 C        -2.328980         1.253563         1.676427
 C        -1.115968         0.594876         2.458042
 O        -3.487946         1.948935         1.897116
 C        -4.448416         1.350042         0.943304
 C        -3.619308         0.575793        -0.148879
 C        -2.458817         0.066144         0.739635
 H         0.036710        -1.152416        -0.011572
 H        -0.456751         2.671108         1.032220
 H        -1.596609         2.264310        -0.325602
 H        -0.495928         1.171322         3.155445
 H        -1.178601        -0.364753         3.047649
 H        -5.140715         0.675755         1.531706
 H        -5.213266         2.062513         0.673467
 H        -4.098151        -0.385025        -0.531897
 H        -3.335347         1.202192        -0.955628
 H        -2.842872        -0.828808         1.229527
