19
Iteration:  3462charge 0 multiplicity 1
 O         0.151904        -0.081906         0.231670
 C        -0.940773         0.437101         0.770216
 C        -1.375037         1.832383         0.700233
 C        -2.347233         1.173674         1.723495
 C        -1.013463         0.508176         2.320132
 O        -3.551945         1.763127         2.043880
 C        -4.197616         1.793383         0.760457
 C        -3.727166         0.468532        -0.096283
 C        -2.428406        -0.046612         0.691144
 H         0.054378        -0.367372        -0.733312
 H        -0.705582         2.534589         1.139981
 H        -1.754510         2.067880        -0.237327
 H        -0.278364         1.189662         2.749689
 H        -1.189438        -0.424888         2.891823
 H        -5.293229         1.809361         0.896237
 H        -3.842193         2.603025         0.122750
 H        -4.556327        -0.288157        -0.089465
 H        -3.664762         0.819736        -1.138795
 H        -2.673750        -1.044298         1.202723
