19
Iteration:  2572charge 0 multiplicity 1
 O         0.170484        -0.182813         0.206217
 C        -0.909674         0.375784         0.782660
 C        -1.391322         1.937845         0.668926
 C        -2.255782         1.210314         1.753011
 C        -1.047058         0.506970         2.325077
 O        -3.577376         1.667966         2.082873
 C        -4.252572         1.732087         0.781564
 C        -3.622638         0.603507        -0.141042
 C        -2.527910         0.024358         0.654437
 H        -0.057812        -0.311474        -0.689027
 H        -0.886255         2.866189         1.115614
 H        -1.976117         2.143304        -0.325360
 H        -0.354680         1.098924         2.790363
 H        -0.980799        -0.523815         2.825633
 H        -5.305191         1.476543         0.945124
 H        -4.011283         2.746980         0.446572
 H        -4.365930        -0.240678        -0.156096
 H        -3.376807         0.965109        -1.082450
 H        -2.751123        -0.881202         1.252408
