19
Iteration:  4099charge 0 multiplicity 1
 O         0.124453        -0.190852         0.148127
 C        -0.886869         0.494839         0.765061
 C        -1.337519         1.896694         0.459873
 C        -2.315900         1.239610         1.660409
 C        -1.064280         0.595360         2.366187
 O        -3.548499         1.773008         2.101757
 C        -4.323047         1.646879         0.862563
 C        -3.661890         0.477644        -0.115218
 C        -2.449275        -0.015483         0.752108
 H         0.627012        -0.689954         0.762946
 H        -0.703943         2.675873         0.895010
 H        -1.785332         1.908003        -0.523671
 H        -0.420037         1.336617         2.907977
 H        -1.072069        -0.334288         3.037912
 H        -5.274461         1.296212         1.029293
 H        -4.395063         2.641206         0.397516
 H        -4.259002        -0.302030        -0.029560
 H        -3.553711         0.848766        -1.113266
 H        -2.577887        -0.921053         1.258555
