19
Iteration:   155charge 0 multiplicity 1
 O         0.023962        -0.344588         0.044903
 C        -0.922268         0.463578         0.750249
 C        -1.218470         2.012811         0.963812
 C        -2.264997         1.163227         1.788431
 C        -1.135213         0.435563         2.401835
 O        -3.664296         1.589105         2.019933
 C        -4.338774         1.647532         0.757234
 C        -3.505934         0.682893        -0.289522
 C        -2.416594         0.201044         0.697403
 H         0.717484         0.338197        -0.325337
 H        -0.452682         2.662222         1.495080
 H        -1.620424         2.537718         0.221056
 H        -0.452945         1.138096         3.016095
 H        -1.381112        -0.493414         2.807142
 H        -5.408150         1.422671         0.959786
 H        -4.366237         2.728398         0.373553
 H        -3.988218        -0.199854        -0.628642
 H        -3.249920         1.234501        -1.211475
 H        -2.597556        -0.780235         1.057988
