19
Iteration:  2063charge 0 multiplicity 1
 O         0.112136        -0.295928         0.176283
 C        -0.918707         0.415456         0.763382
 C        -1.103232         1.939507         0.760347
 C        -2.295162         1.269907         1.599089
 C        -1.277987         0.508433         2.347132
 O        -3.423179         1.882850         1.987320
 C        -4.470555         1.348012         1.002175
 C        -3.684556         0.733700        -0.208793
 C        -2.440324         0.069668         0.637207
 H         0.563152         0.223253        -0.526491
 H        -0.368165         2.522091         1.432433
 H        -1.471642         2.528816        -0.174005
 H        -0.488732         1.066521         3.002288
 H        -1.342422        -0.441387         2.731988
 H        -5.051635         0.555796         1.514247
 H        -5.166958         2.009873         0.529392
 H        -4.118723        -0.271072        -0.708316
 H        -3.258720         1.595120        -0.826417
 H        -2.696182        -0.799272         1.235032
