19
Iteration:  3709charge 0 multiplicity 1
 O         0.060167        -0.264045         0.188770
 C        -0.982805         0.466823         0.707695
 C        -1.317781         1.948107         0.696619
 C        -2.268788         1.255888         1.739848
 C        -0.916297         0.618956         2.355178
 O        -3.629591         1.724610         2.097951
 C        -4.308912         1.642092         0.682845
 C        -3.623523         0.451856        -0.145827
 C        -2.440902         0.062117         0.840799
 H        -0.008952        -0.219223        -0.818363
 H        -0.476433         2.574027         1.098170
 H        -1.711860         2.432201        -0.197961
 H        -0.163837         1.309225         2.825606
 H        -1.122718        -0.483846         2.676150
 H        -5.381559         1.402930         0.861282
 H        -4.057518         2.527532         0.114769
 H        -4.309153        -0.428981        -0.301550
 H        -3.386320         0.806844        -1.093244
 H        -2.630676        -0.845596         1.369635
