19
Iteration:  4941charge 0 multiplicity 1
 O         0.113614        -0.298656         0.198455
 C        -0.935767         0.437376         0.768925
 C        -1.241806         1.937759         0.580437
 C        -2.264946         1.304416         1.634463
 C        -1.047203         0.479080         2.348488
 O        -3.499199         1.890686         1.999210
 C        -4.436111         1.487086         0.957287
 C        -3.703002         0.495617        -0.086134
 C        -2.448073         0.074957         0.679217
 H         0.822320         0.309259        -0.095510
 H        -0.515948         2.733467         0.819800
 H        -1.703629         2.245631        -0.402792
 H        -0.247715         1.067714         2.900566
 H        -1.328327        -0.456627         2.858612
 H        -5.289272         1.117511         1.493879
 H        -4.756860         2.335461         0.352327
 H        -4.374206        -0.211002        -0.447218
 H        -3.492639         1.294464        -0.908180
 H        -2.684375        -0.712260         1.310769
