19
Iteration:  4606
 O         0.084818        -0.338658         0.306861
 C        -0.983625         0.435000         0.680085
 C        -1.129289         2.012906         0.636805
 C        -2.193343         1.376092         1.657358
 C        -1.079482         0.599100         2.274066
 O        -3.549417         1.854131         1.990160
 C        -4.427549         1.308126         0.982045
 C        -3.656560         0.605213        -0.127416
 C        -2.436654         0.135027         0.683099
 H        -0.073088        -0.834809        -0.584757
 H        -0.243250         2.544004         1.005953
 H        -1.509705         2.475133        -0.295548
 H        -0.227346         1.196325         2.738768
 H        -1.336120        -0.277958         2.888046
 H        -5.224236         0.652168         1.423513
 H        -4.990410         2.044976         0.428641
 H        -4.188232        -0.360952        -0.455141
 H        -3.781459         1.193301        -0.939282
 H        -2.773166        -0.734013         1.246523
