19
Iteration:  2035charge 0 multiplicity 1
 O         0.139563        -0.321313         0.126439
 C        -0.895876         0.418392         0.784419
 C        -1.163747         1.924235         0.772270
 C        -2.294243         1.357737         1.701745
 C        -1.135831         0.438397         2.346047
 O        -3.562159         1.837029         2.023567
 C        -4.413450         1.424794         0.908994
 C        -3.702214         0.650099        -0.174383
 C        -2.428433         0.202279         0.651473
 H         0.854620         0.138829        -0.239746
 H        -0.393624         2.567752         1.111221
 H        -1.536426         2.261388        -0.170108
 H        -0.328182         0.953082         2.801521
 H        -1.381856        -0.700429         2.653624
 H        -5.288349         0.785526         1.256703
 H        -5.052177         2.123479         0.298512
 H        -4.179193        -0.165282        -0.592794
 H        -3.498535         1.282618        -1.056355
 H        -2.693193        -0.690949         1.290646
