19
Iteration:   625charge 0 multiplicity 1
 O         0.028097        -0.181685         0.047282
 C        -0.960897         0.417834         0.746519
 C        -1.228794         1.873499         0.730287
 C        -2.304944         1.277007         1.722039
 C        -1.171511         0.565189         2.484735
 O        -3.500678         1.760284         2.054173
 C        -4.350397         1.476113         0.855668
 C        -3.543426         0.658212        -0.193017
 C        -2.461660        -0.020932         0.649223
 H         0.898840         0.259871         0.265036
 H        -0.466157         2.548767         1.018595
 H        -1.285711         2.256823        -0.379420
 H        -0.404484         1.159154         3.083856
 H        -1.459568        -0.366407         3.089996
 H        -5.158854         0.841871         1.227997
 H        -4.836693         2.383281         0.457442
 H        -4.356792         0.145388        -0.736681
 H        -3.131366         1.436142        -0.960251
 H        -2.647641        -1.093064         0.999079
