19
Iteration:  2089
 O         0.183313        -0.292039         0.212349
 C        -0.940279         0.333934         0.810486
 C        -1.221794         1.938390         0.680195
 C        -2.256271         1.287291         1.675890
 C        -1.104209         0.412558         2.337121
 O        -3.542498         1.928815         1.922928
 C        -4.485636         1.319780         1.049423
 C        -3.605313         0.837132        -0.241550
 C        -2.471533         0.137949         0.670022
 H         0.213374         0.006022        -0.706170
 H        -0.577058         2.651337         1.160137
 H        -1.675218         2.314875        -0.213760
 H        -0.281884         0.784494         2.865425
 H        -1.438393        -0.500844         3.005758
 H        -4.979224         0.357169         1.405368
 H        -5.212481         2.026730         0.657618
 H        -3.996492        -0.016578        -0.697653
 H        -3.196353         1.664837        -0.803984
 H        -2.749130        -0.879333         1.021259
