19
Iteration:  2028
 O         0.142222        -0.337950         0.116841
 C        -0.901203         0.410585         0.765808
 C        -1.179200         1.957142         0.731187
 C        -2.255828         1.296665         1.679620
 C        -1.145377         0.433074         2.322267
 O        -3.567818         1.875400         2.053974
 C        -4.490010         1.413376         0.872328
 C        -3.632210         0.664027        -0.166479
 C        -2.436686         0.151967         0.735712
 H         0.871606         0.284149        -0.123708
 H        -0.470332         2.678491         1.224931
 H        -1.680257         2.457066        -0.120470
 H        -0.369285         1.016471         2.865720
 H        -1.326630        -0.572012         2.660084
 H        -5.311374         0.807736         1.236887
 H        -4.785776         2.456037         0.508531
 H        -4.158945        -0.242798        -0.668583
 H        -3.413742         1.229301        -1.083663
 H        -2.724458        -0.841715         1.120448
