19
Iteration:  3646
 O         0.200923        -0.197832         0.213093
 C        -0.964804         0.328401         0.811475
 C        -1.259402         1.942024         0.638068
 C        -2.281302         1.278239         1.657247
 C        -1.034819         0.535004         2.351494
 O        -3.554207         1.914263         1.982101
 C        -4.382920         1.433791         0.944660
 C        -3.638550         0.629785        -0.181731
 C        -2.511066         0.085400         0.690001
 H        -0.016668        -0.947767        -0.461833
 H        -0.403180         2.406815         1.181102
 H        -1.521220         2.236781        -0.386638
 H        -0.240544         1.092829         2.747177
 H        -1.263925        -0.388262         2.857919
 H        -5.214454         0.804994         1.365573
 H        -4.905465         2.295471         0.523148
 H        -4.221556        -0.324561        -0.409717
 H        -3.512031         1.121553        -1.122609
 H        -2.832540        -0.743757         1.287383
