19
Iteration:  2046charge 0 multiplicity 1
 O         0.082002        -0.304522         0.170001
 C        -0.889147         0.435457         0.793073
 C        -1.119636         1.948208         0.765329
 C        -2.258411         1.324688         1.664227
 C        -1.122947         0.441575         2.353243
 O        -3.531802         1.810210         1.954843
 C        -4.460643         1.381783         0.947807
 C        -3.662410         0.624458        -0.200819
 C        -2.474641         0.224619         0.583497
 H         0.626629         0.396079        -0.290417
 H        -0.344399         2.505650         1.226830
 H        -1.304477         2.243974        -0.242047
 H        -0.393299         0.848405         3.005690
 H        -1.587848        -0.422326         3.046988
 H        -5.024547         0.684065         1.623894
 H        -4.953146         2.377019         0.716769
 H        -4.330296        -0.117590        -0.405928
 H        -3.470716         1.357941        -0.990689
 H        -2.830645        -0.739208         1.064971
