19
Iteration:  1548charge 0 multiplicity 1
 O         0.052023        -0.227726         0.046848
 C        -0.931991         0.454143         0.764991
 C        -1.289493         1.991716         0.878258
 C        -2.259302         1.240144         1.760726
 C        -1.083239         0.445589         2.334810
 O        -3.560271         1.761289         1.991209
 C        -4.243745         1.613165         0.753316
 C        -3.665795         0.426137        -0.114735
 C        -2.468559         0.138295         0.685960
 H         0.839205         0.259983        -0.005450
 H        -0.651287         2.793791         1.323503
 H        -1.826010         2.212501         0.024393
 H        -0.262074         0.909837         2.939616
 H        -1.103012        -0.555356         2.893746
 H        -5.377433         1.600798         1.034079
 H        -4.281061         2.606047         0.182409
 H        -4.309724        -0.431618        -0.284818
 H        -3.469274         0.883981        -1.084219
 H        -2.788982        -0.735252         1.239944
