19
Iteration:    27
 O         0.007724        -0.289265         0.027203
 C        -0.905873         0.372150         0.813192
 C        -1.109259         1.885012         0.797007
 C        -2.331684         1.250258         1.703443
 C        -1.132065         0.499073         2.420057
 O        -3.630419         1.822716         1.981048
 C        -4.486853         1.272772         0.877864
 C        -3.419097         0.922871        -0.275819
 C        -2.440568         0.156282         0.676527
 H         0.811484        -0.307872         0.485553
 H        -0.326643         2.348825         1.478841
 H        -1.514385         2.367429        -0.094467
 H        -0.461150         1.033433         3.279958
 H        -1.385530        -0.477363         2.889970
 H        -4.940334         0.406215         1.338899
 H        -5.211555         2.095647         0.628492
 H        -3.851341         0.336878        -1.130392
 H        -3.021382         1.976589        -0.614031
 H        -2.903073        -0.819917         1.081861
