19
Iteration:  4840
 O         0.112774        -0.305525         0.180306
 C        -0.878493         0.458118         0.763419
 C        -1.342441         1.967282         0.614335
 C        -2.247182         1.272557         1.641774
 C        -1.020172         0.612295         2.357919
 O        -3.518369         1.810045         2.000527
 C        -4.390379         1.555991         0.849090
 C        -3.665224         0.527352        -0.012598
 C        -2.440305         0.049445         0.712796
 H        -0.106379        -0.749875        -0.630306
 H        -0.693682         2.727840         1.155304
 H        -1.801524         2.225005        -0.337554
 H        -0.414295         1.427380         2.841864
 H        -1.178474        -0.357637         2.943462
 H        -5.289506         1.092128         1.218145
 H        -4.627789         2.478986         0.396226
 H        -4.225121        -0.422413        -0.177359
 H        -3.419164         0.833436        -1.056672
 H        -2.601854        -0.844104         1.271374
