19
Iteration:  4027charge 0 multiplicity 1
 O         0.114946        -0.101332         0.010021
 C        -0.945633         0.393536         0.777286
 C        -1.338915         1.961247         0.658109
 C        -2.243186         1.332081         1.650061
 C        -1.123149         0.600394         2.482436
 O        -3.502306         1.855431         1.963858
 C        -4.284528         1.522348         0.796460
 C        -3.636284         0.356665        -0.021416
 C        -2.416475        -0.000309         0.770245
 H         0.050937        -1.098884        -0.040322
 H        -0.738689         2.720487         1.171617
 H        -1.837123         2.177890        -0.342431
 H        -0.335463         1.027366         3.119000
 H        -1.437832        -0.332177         2.949593
 H        -5.409381         1.494536         1.270329
 H        -4.331379         2.441896         0.134505
 H        -4.464863        -0.519658         0.033450
 H        -3.436550         0.792062        -1.027809
 H        -2.659553        -0.952750         1.419913
