19
Iteration:  2230charge 0 multiplicity 1
 O         0.139657        -0.183115         0.141328
 C        -1.000485         0.420479         0.784192
 C        -1.282118         1.961600         0.734609
 C        -2.284752         1.217565         1.700258
 C        -1.110520         0.453891         2.354764
 O        -3.603566         1.652641         2.044618
 C        -4.201839         1.718803         0.765382
 C        -3.704230         0.538027        -0.058447
 C        -2.449763         0.088709         0.651092
 H         0.351403         0.348912        -0.628954
 H        -0.462514         2.540185         1.237433
 H        -1.469630         2.240779        -0.322354
 H        -0.388901         0.935026         2.863706
 H        -1.233298        -0.537130         2.880285
 H        -5.290215         1.797688         0.866374
 H        -3.873429         2.605009         0.277143
 H        -4.408033        -0.312013         0.247497
 H        -3.408732         0.724255        -1.045286
 H        -2.658825        -0.852575         1.106535
