19
Iteration:  4307
 O         0.068906        -0.199386         0.108549
 C        -0.951936         0.463442         0.711891
 C        -1.198357         1.947810         0.683988
 C        -2.273956         1.268207         1.701553
 C        -1.118562         0.666365         2.420015
 O        -3.503537         1.800948         1.987195
 C        -4.324585         1.452994         0.821729
 C        -3.651641         0.481577        -0.080341
 C        -2.436732         0.036329         0.733166
 H        -0.240405        -1.110954        -0.216785
 H        -0.451340         2.722608         1.102085
 H        -1.772567         2.401664        -0.218875
 H        -0.462553         1.392921         2.975254
 H        -1.252386        -0.333455         3.023019
 H        -5.277431         1.129233         1.221055
 H        -4.623125         2.444330         0.301006
 H        -4.254505        -0.345758        -0.232632
 H        -3.322216         0.993858        -0.974331
 H        -2.579092        -0.918895         1.217649
