19
Iteration:  1165
 O         0.010011        -0.183431         0.077860
 C        -0.992074         0.449785         0.793750
 C        -1.265721         1.990786         0.727049
 C        -2.267256         1.226140         1.719505
 C        -1.117759         0.462750         2.389798
 O        -3.556362         1.697962         2.018346
 C        -4.297278         1.695603         0.755254
 C        -3.597470         0.455696        -0.054083
 C        -2.376520         0.058225         0.658751
 H         0.884536         0.106101         0.439843
 H        -0.632811         2.691925         1.290121
 H        -1.715965         2.503588        -0.236102
 H        -0.385677         1.001214         2.885155
 H        -1.352764        -0.590235         2.804546
 H        -5.365189         1.603499         0.971688
 H        -4.133714         2.668960         0.191426
 H        -4.255969        -0.370944        -0.052852
 H        -3.574102         0.875784        -1.149536
 H        -2.427412        -0.998128         1.069346
