19
Iteration:  2017
 O         0.100801        -0.311658         0.116690
 C        -0.906526         0.430694         0.717303
 C        -1.261514         1.984812         0.710101
 C        -2.315935         1.220266         1.706983
 C        -1.074179         0.476365         2.335016
 O        -3.506679         1.835030         2.034165
 C        -4.477797         1.494973         0.870949
 C        -3.518769         0.632997        -0.172305
 C        -2.508636         0.066329         0.700294
 H         0.789686         0.305353         0.092255
 H        -0.535018         2.577972         1.338847
 H        -1.567426         2.469860        -0.246175
 H        -0.382768         0.996269         3.033212
 H        -1.493223        -0.345836         2.899829
 H        -5.292983         0.983116         1.365111
 H        -4.944346         2.512460         0.511988
 H        -4.228986        -0.205035        -0.554686
 H        -3.051105         1.348359        -0.850525
 H        -2.703845        -0.903238         1.206327
