19
Iteration:   175charge 0 multiplicity 1
 O        -0.051115        -0.235732         0.045924
 C        -0.875854         0.499431         0.861032
 C        -1.203995         2.026844         0.876367
 C        -2.389860         1.250279         1.741877
 C        -1.131285         0.394134         2.376210
 O        -3.690602         1.540781         2.096494
 C        -4.203737         1.707085         0.688547
 C        -3.565964         0.624158        -0.205302
 C        -2.359707         0.096699         0.666928
 H         0.835599         0.101415        -0.183706
 H        -0.488670         2.702143         1.492626
 H        -1.275623         2.486602        -0.102795
 H        -0.321125         0.724674         3.071592
 H        -1.308625        -0.657737         2.616088
 H        -5.300355         1.515630         0.623188
 H        -4.027791         2.751647         0.368930
 H        -4.212286        -0.139665        -0.451590
 H        -3.376931         1.125687        -1.105432
 H        -2.570819        -0.887393         0.964893
