19
Iteration:  2240charge 0 multiplicity 1
 O         0.171822        -0.201559         0.142897
 C        -0.910003         0.417221         0.714984
 C        -1.262784         1.966578         0.782425
 C        -2.301684         1.277479         1.695632
 C        -1.095515         0.445860         2.304152
 O        -3.603368         1.645495         2.077192
 C        -4.203635         1.802230         0.737909
 C        -3.725117         0.457671        -0.090414
 C        -2.519466         0.045429         0.762940
 H         0.538497         0.205870        -0.682622
 H        -0.501441         2.608590         1.344760
 H        -1.689072         2.581817        -0.059277
 H        -0.503422         1.081711         2.871001
 H        -1.387630        -0.560064         2.683474
 H        -5.280570         1.719551         0.923967
 H        -3.947050         2.703389         0.221216
 H        -4.444013        -0.373204        -0.194621
 H        -3.659418         0.684578        -1.126012
 H        -2.666492        -0.915543         1.247195
