19
Iteration:  2269charge 0 multiplicity 1
 O         0.168917        -0.169427         0.197938
 C        -0.928364         0.396876         0.765215
 C        -1.337801         1.893811         0.755136
 C        -2.309206         1.196385         1.703175
 C        -1.052576         0.415278         2.325759
 O        -3.551966         1.780695         2.037101
 C        -4.256087         1.717783         0.784800
 C        -3.662286         0.542830        -0.100448
 C        -2.489062         0.043262         0.662961
 H         0.107222        -0.031051        -0.814237
 H        -0.685181         2.630209         1.230899
 H        -1.777835         2.337661        -0.165945
 H        -0.391920         1.182387         3.098111
 H        -1.092489        -0.522970         2.878358
 H        -5.311753         1.476347         1.110673
 H        -4.322455         2.782538         0.290113
 H        -4.325251        -0.304590        -0.299285
 H        -3.683148         1.038195        -1.167095
 H        -2.622922        -1.050516         0.961610
