19
Iteration:     3
 O         0.063063        -0.245899         0.106685
 C        -0.921895         0.403438         0.785315
 C        -1.212765         1.951072         0.815934
 C        -2.314375         1.213999         1.713681
 C        -1.199792         0.413071         2.381908
 O        -3.555695         1.746618         2.009751
 C        -4.380396         1.496498         0.832238
 C        -3.539296         0.745180        -0.219865
 C        -2.447231         0.137873         0.637867
 H         0.990375         0.096355         0.326633
 H        -0.467506         2.585075         1.383982
 H        -1.486619         2.309663        -0.101729
 H        -0.395185         0.973338         2.993099
 H        -1.388312        -0.510301         2.850008
 H        -5.212724         0.919381         1.160144
 H        -4.711731         2.499148         0.491381
 H        -4.145875        -0.003326        -0.749889
 H        -3.064813         1.462152        -0.976317
 H        -2.717801        -0.884365         1.026961
