19
Iteration:   969
 O         0.098078        -0.395839         0.126168
 C        -0.830267         0.514229         0.813701
 C        -1.215096         2.038573         0.730904
 C        -2.293770         1.312846         1.615962
 C        -1.266454         0.468963         2.305784
 O        -3.490503         1.869098         1.997544
 C        -4.430769         1.340984         1.016728
 C        -3.605834         0.652023        -0.170500
 C        -2.417727         0.139747         0.623797
 H         0.983614         0.098513         0.269914
 H        -0.474566         2.692652         1.159445
 H        -1.588098         2.361010        -0.258481
 H        -0.589599         0.799843         3.069200
 H        -1.707169        -0.591366         2.579924
 H        -5.021119         0.588970         1.569400
 H        -5.109106         2.136453         0.666101
 H        -4.134481        -0.089715        -0.758995
 H        -3.312319         1.443228        -0.927077
 H        -2.711684        -0.822482         1.046893
