19
Iteration:   637
 O         0.088523        -0.270877         0.105139
 C        -0.974572         0.433301         0.740667
 C        -1.209500         1.935801         0.620274
 C        -2.292771         1.231670         1.679667
 C        -1.221511         0.546591         2.354089
 O        -3.538431         1.729766         2.040286
 C        -4.395545         1.423944         0.921189
 C        -3.508988         0.760901        -0.140197
 C        -2.433523         0.085098         0.710699
 H         0.861935         0.145000         0.415466
 H        -0.608119         2.456006         1.325148
 H        -1.634143         2.427493        -0.334722
 H        -0.403497         1.162813         2.899927
 H        -1.527415        -0.426838         2.812959
 H        -5.181012         0.748615         1.293358
 H        -4.812045         2.408720         0.592929
 H        -4.022678        -0.027782        -0.744963
 H        -2.958039         1.399592        -0.867400
 H        -2.747183        -0.851930         1.274640
