19
Iteration:  4734
 O        -0.092248        -0.321434         0.044251
 C        -0.959129         0.469632         0.774712
 C        -1.280080         2.036335         0.643224
 C        -2.258155         1.323073         1.678918
 C        -1.043048         0.699702         2.320110
 O        -3.501626         1.685874         2.035645
 C        -4.310327         1.518089         0.815680
 C        -3.592784         0.449564        -0.086595
 C        -2.431804         0.026439         0.858308
 H         0.739468        -0.217687         0.486907
 H        -0.585410         2.739369         1.088809
 H        -1.722581         2.387542        -0.241757
 H        -0.245483         1.235078         2.779963
 H        -1.461015        -0.040597         2.956910
 H        -5.394765         1.431158         0.950736
 H        -3.985761         2.446715         0.216897
 H        -4.300618        -0.304808        -0.363933
 H        -3.081164         0.878103        -1.081689
 H        -2.629133        -0.871416         1.508903
