19
Iteration:  1751
 O         0.113217        -0.365908         0.108965
 C        -0.918266         0.425374         0.756916
 C        -1.084744         1.969739         0.717713
 C        -2.293216         1.370126         1.681426
 C        -1.198849         0.510512         2.363463
 O        -3.540919         1.829125         2.034779
 C        -4.485022         1.293790         0.943757
 C        -3.663078         0.664781        -0.181559
 C        -2.400557         0.214654         0.621885
 H         0.972985        -0.028659         0.101321
 H        -0.251030         2.544633         1.246833
 H        -1.286422         2.494630        -0.252829
 H        -0.573023         1.205365         2.902191
 H        -1.289196        -0.563694         2.827121
 H        -5.145894         0.646739         1.550013
 H        -5.203059         2.099796         0.651267
 H        -4.225983        -0.125872        -0.653479
 H        -3.519233         1.444035        -1.012745
 H        -2.776575        -0.721353         1.129214
