19
Iteration:  1942charge 0 multiplicity 1
 O        -0.005917        -0.253880         0.096380
 C        -0.939759         0.481543         0.737556
 C        -1.319889         1.960567         0.801634
 C        -2.274796         1.219093         1.729042
 C        -1.094979         0.503558         2.378734
 O        -3.524300         1.710223         2.095612
 C        -4.229169         1.672047         0.740061
 C        -3.671738         0.476806        -0.175394
 C        -2.443239         0.092613         0.683404
 H         0.854143         0.293032         0.224331
 H        -0.536389         2.712028         1.294110
 H        -1.588226         2.411221        -0.218782
 H        -0.213368         1.143024         2.700621
 H        -1.112831        -0.440731         2.778460
 H        -5.253319         1.490347         0.962412
 H        -4.279519         2.622460         0.353399
 H        -4.376976        -0.460815        -0.178315
 H        -3.524070         0.714821        -1.245725
 H        -2.475697        -0.871232         1.154575
