19
Iteration:    51charge 0 multiplicity 1
 O        -0.027229        -0.409570         0.085456
 C        -0.920596         0.485188         0.804868
 C        -1.049050         2.110593         0.893706
 C        -2.296420         1.318471         1.697703
 C        -1.311507         0.361011         2.375807
 O        -3.529476         1.819282         1.954356
 C        -4.389499         1.180620         0.924281
 C        -3.523732         0.849924        -0.261596
 C        -2.393555         0.280187         0.540702
 H         0.796476        -0.278290         0.569710
 H        -0.389267         2.636598         1.528763
 H        -1.438476         2.418035        -0.197168
 H        -0.455022         0.806847         2.943978
 H        -1.704875        -0.530544         3.058874
 H        -4.696122         0.205710         1.441018
 H        -5.214928         1.853744         0.724460
 H        -4.094744         0.100146        -0.854971
 H        -3.279963         1.748675        -0.830717
 H        -2.671901        -0.748701         0.898295
