19
Iteration:  2796
 O         0.060106        -0.253075         0.109633
 C        -0.917253         0.445167         0.807274
 C        -1.128690         1.866667         0.677047
 C        -2.319839         1.236336         1.729194
 C        -1.125372         0.541655         2.394102
 O        -3.500106         1.818877         1.997499
 C        -4.456881         1.467368         0.884517
 C        -3.617808         0.635806        -0.160512
 C        -2.467554         0.072002         0.670194
 H         0.697184         0.355094        -0.382953
 H        -0.449992         2.471260         1.445138
 H        -1.378985         2.253647        -0.354080
 H        -0.182930         1.119290         2.738443
 H        -1.480216        -0.400588         2.888790
 H        -5.341017         0.868569         1.220946
 H        -5.009843         2.470827         0.632255
 H        -4.126575        -0.157351        -0.768708
 H        -3.252050         1.361960        -0.896654
 H        -2.700967        -0.783193         1.376538
