19
Iteration:  3515
 O         0.028717        -0.261524         0.146075
 C        -0.988125         0.420328         0.826665
 C        -1.205000         1.937079         0.606317
 C        -2.275423         1.279949         1.666136
 C        -1.162664         0.547264         2.376252
 O        -3.479006         1.759224         2.055382
 C        -4.371947         1.540887         0.852191
 C        -3.552157         0.583026        -0.121452
 C        -2.426010         0.055029         0.673132
 H         0.788115         0.416719         0.121882
 H        -0.502015         2.677259         1.024455
 H        -1.669583         2.209170        -0.332708
 H        -0.440302         1.134556         2.815513
 H        -1.469019        -0.266619         2.998976
 H        -5.324161         1.118647         1.127911
 H        -4.677434         2.357780         0.282392
 H        -4.313379        -0.256682        -0.170427
 H        -3.375968         1.036231        -1.036099
 H        -2.698794        -0.960992         1.031180
