19
Iteration:   661
 O         0.118924        -0.434426         0.200267
 C        -0.887524         0.479509         0.778155
 C        -1.251334         2.042539         0.742249
 C        -2.255401         1.372888         1.729426
 C        -1.021347         0.470025         2.301571
 O        -3.569380         1.767151         2.064690
 C        -4.509528         1.335870         0.908118
 C        -3.699436         0.740309        -0.275681
 C        -2.412184         0.188913         0.567921
 H         1.003684        -0.128841         0.478979
 H        -0.539967         2.725876         1.328607
 H        -1.545920         2.202966        -0.292981
 H        -0.099254         1.050337         2.809333
 H        -1.308527        -0.466739         2.744822
 H        -5.199109         0.638635         1.434101
 H        -5.015698         2.305309         0.612224
 H        -4.333150        -0.027908        -0.817112
 H        -3.320038         1.370256        -1.002430
 H        -2.661417        -0.760636         1.078640
