19
Iteration:   683charge 0 multiplicity 1
 O         0.035729        -0.360234         0.193977
 C        -0.840713         0.508976         0.726252
 C        -1.126819         2.032045         0.795952
 C        -2.304197         1.227532         1.618869
 C        -1.156987         0.517308         2.319634
 O        -3.493586         1.809199         1.946644
 C        -4.465280         1.316869         1.048366
 C        -3.631866         0.702676        -0.212044
 C        -2.458134         0.186828         0.538355
 H         0.913621        -0.223317         0.610439
 H        -0.288144         2.509000         1.378771
 H        -1.567074         2.474133        -0.067876
 H        -0.674661         1.325837         3.050957
 H        -1.261062        -0.438232         2.817154
 H        -5.052125         0.559595         1.621947
 H        -5.136113         2.139826         0.673373
 H        -4.243206        -0.161952        -0.619546
 H        -3.510346         1.364343        -1.006739
 H        -2.711478        -0.842832         0.892851
