19
Iteration:  4878
 O         0.084765        -0.183514         0.029924
 C        -0.961430         0.326951         0.785336
 C        -1.281589         1.864272         0.539222
 C        -2.270956         1.296444         1.700860
 C        -1.012182         0.647654         2.391186
 O        -3.558254         1.783602         2.038990
 C        -4.399272         1.511378         0.847370
 C        -3.550350         0.586821        -0.091169
 C        -2.440397         0.078059         0.846078
 H         0.045693        -1.094805         0.306981
 H        -0.553996         2.570388         0.862561
 H        -1.668380         2.197659        -0.448409
 H        -0.249868         1.272963         2.808545
 H        -1.192008        -0.146569         3.064922
 H        -5.303571         0.898878         1.188866
 H        -4.842036         2.507210         0.379538
 H        -4.272311        -0.139242        -0.441094
 H        -3.150016         1.072109        -0.970632
 H        -2.904105        -0.678339         1.551712
