19
Iteration:   418
 O         0.173986        -0.277074         0.084484
 C        -0.898764         0.414992         0.799975
 C        -1.276907         1.896481         0.717730
 C        -2.367380         1.241533         1.713183
 C        -1.062783         0.496212         2.363153
 O        -3.625339         1.792620         2.034434
 C        -4.403939         1.401847         0.915011
 C        -3.500314         0.854651        -0.279706
 C        -2.447948         0.149630         0.711400
 H         0.120971        -1.171341         0.459587
 H        -0.759708         2.716979         1.251380
 H        -1.573344         2.338720        -0.360114
 H        -0.283795         1.057172         2.914173
 H        -1.424831        -0.373340         3.074928
 H        -4.830360         0.470020         1.326149
 H        -5.204758         2.215804         0.725982
 H        -4.040675         0.095781        -0.853206
 H        -3.083782         1.586599        -1.005341
 H        -2.862885        -0.847308         0.906792
