19
Iteration:   696
 O         0.089001        -0.293542         0.094731
 C        -0.932194         0.450116         0.811364
 C        -1.145245         1.983725         0.753720
 C        -2.273419         1.338605         1.572171
 C        -1.276120         0.487282         2.344409
 O        -3.466979         1.876299         1.975801
 C        -4.444546         1.270666         1.039624
 C        -3.633038         0.655674        -0.194252
 C        -2.412320         0.108910         0.595238
 H         0.953080        -0.232875         0.584956
 H        -0.496420         2.714594         1.375749
 H        -1.248396         2.390185        -0.192296
 H        -0.495300         1.024805         2.977878
 H        -1.682312        -0.456053         2.745988
 H        -5.109201         0.516538         1.534138
 H        -5.093812         2.114186         0.748001
 H        -4.174178         0.073575        -0.915683
 H        -3.223124         1.523821        -0.628936
 H        -2.645402        -0.735597         1.198720
