19
Iteration:  3783charge 0 multiplicity 1
 O         0.271204        -0.274005         0.272691
 C        -0.861366         0.387510         0.722471
 C        -1.412203         1.912999         0.573362
 C        -2.261993         1.266935         1.621455
 C        -1.053522         0.614784         2.307348
 O        -3.523101         1.733784         2.059418
 C        -4.374179         1.630291         0.828523
 C        -3.736940         0.536006        -0.053554
 C        -2.522391         0.043684         0.767916
 H         0.474587         0.130884        -0.535725
 H        -0.692297         2.535769         1.069702
 H        -1.801400         2.384793        -0.291626
 H        -0.439100         1.344512         2.679805
 H        -1.276029        -0.325033         2.714672
 H        -5.448285         1.538861         1.141435
 H        -4.175681         2.617580         0.405869
 H        -4.322495        -0.371679        -0.248250
 H        -3.441819         0.769881        -1.158642
 H        -2.834211        -0.898930         1.343221
