19
Iteration:   358
 O         0.212081        -0.323856         0.158582
 C        -0.875221         0.420770         0.791651
 C        -1.165801         1.970336         0.847295
 C        -2.270971         1.296874         1.667999
 C        -1.197647         0.339825         2.336941
 O        -3.490600         1.881207         1.996576
 C        -4.471072         1.365641         0.900450
 C        -3.767667         0.672834        -0.240626
 C        -2.468891         0.248220         0.571438
 H         0.874318         0.470254         0.069287
 H        -0.465208         2.547489         1.437663
 H        -1.481391         2.479384        -0.015950
 H        -0.431534         0.779037         3.032629
 H        -1.577552        -0.540394         2.816033
 H        -5.133180         0.823836         1.583864
 H        -5.014665         2.181204         0.483715
 H        -4.170891        -0.257685        -0.709434
 H        -3.632262         1.414656        -1.019885
 H        -2.565206        -0.793963         0.968838
