19
Iteration:  3666
 O         0.090109        -0.286191         0.130569
 C        -0.840179         0.469211         0.730067
 C        -1.292236         1.890580         0.651995
 C        -2.311868         1.293851         1.703824
 C        -1.150820         0.656185         2.419324
 O        -3.478538         1.784610         2.025941
 C        -4.406032         1.524238         0.847906
 C        -3.571177         0.582789        -0.116222
 C        -2.425529         0.001263         0.741302
 H        -0.224645        -0.759564        -0.642035
 H        -0.645046         2.746423         1.061912
 H        -1.773721         2.211151        -0.298653
 H        -0.532073         1.352844         2.992843
 H        -1.436128        -0.312560         2.946959
 H        -5.316895         1.009210         1.284373
 H        -4.636546         2.495886         0.389110
 H        -4.185894        -0.115148        -0.748220
 H        -3.127780         1.085598        -0.842954
 H        -2.588966        -0.909264         1.254055
