19
Iteration:  4644charge 0 multiplicity 1
 O         0.226946        -0.277375         0.179437
 C        -0.848775         0.379478         0.776271
 C        -1.269797         1.857898         0.571548
 C        -2.273790         1.247641         1.639554
 C        -1.131546         0.574979         2.405320
 O        -3.511068         1.956807         1.931466
 C        -4.439264         1.417632         0.980845
 C        -3.716529         0.621700        -0.036360
 C        -2.465717         0.046102         0.681585
 H         0.530414         0.106657        -0.678748
 H        -0.614392         2.712827         0.845985
 H        -1.862769         2.000142        -0.337739
 H        -0.551475         1.225231         3.046473
 H        -1.408434        -0.381511         2.893914
 H        -5.263299         0.945228         1.564996
 H        -4.742480         2.424589         0.500172
 H        -4.386157        -0.143617        -0.396336
 H        -3.367475         1.157232        -1.051135
 H        -2.698773        -0.866121         1.250340
