19
Iteration:  2866charge 0 multiplicity 1
 O         0.172039        -0.158515         0.021431
 C        -0.960227         0.389935         0.714300
 C        -1.328120         1.915753         0.685400
 C        -2.347648         1.216056         1.724967
 C        -1.071564         0.605380         2.417409
 O        -3.575210         1.644136         2.093505
 C        -4.241266         1.680927         0.758588
 C        -3.688710         0.594620        -0.129566
 C        -2.486089         0.032523         0.799612
 H         0.639463        -0.859153         0.516484
 H        -0.641059         2.511263         1.171594
 H        -1.595868         2.179493        -0.313370
 H        -0.258752         1.299750         2.708664
 H        -1.173725        -0.415823         3.058096
 H        -5.358365         1.651550         0.977331
 H        -4.024532         2.562539         0.190790
 H        -4.443566        -0.226692        -0.321836
 H        -3.380363         1.004780        -1.121698
 H        -2.498067        -0.903463         1.280458
