19
Iteration:  2836
 O        -0.001044        -0.275456         0.078338
 C        -0.955084         0.477150         0.735386
 C        -1.366404         1.975324         0.701934
 C        -2.306697         1.249751         1.700235
 C        -1.078933         0.508099         2.362559
 O        -3.502670         1.707196         2.103141
 C        -4.346432         1.626816         0.803551
 C        -3.539546         0.545067        -0.196844
 C        -2.400717         0.102403         0.768699
 H         0.819708        -0.402129         0.572357
 H        -0.661061         2.769396         1.092919
 H        -1.662566         2.339483        -0.299471
 H        -0.287405         1.018166         2.974640
 H        -1.159690        -0.429285         2.868355
 H        -5.360562         1.422106         1.128543
 H        -4.478558         2.586587         0.230314
 H        -4.182049        -0.278069        -0.375401
 H        -3.259811         0.991579        -1.185574
 H        -2.453703        -0.947176         1.217834
