19
Iteration:   571
 O         0.016575        -0.191676         0.121836
 C        -0.969372         0.446921         0.731880
 C        -1.234020         2.005060         0.772119
 C        -2.294915         1.236003         1.820145
 C        -1.059413         0.419863         2.344805
 O        -3.623753         1.748961         2.071378
 C        -4.311565         1.630970         0.781243
 C        -3.552810         0.404332        -0.213908
 C        -2.433332         0.091527         0.706961
 H         0.566965         0.559981        -0.306579
 H        -0.489564         2.566921         1.343366
 H        -1.670549         2.706635        -0.115100
 H        -0.166884         0.979744         2.719114
 H        -1.278219        -0.668760         2.694842
 H        -5.397878         1.668041         0.929734
 H        -3.889216         2.519031         0.241287
 H        -4.281112        -0.385455        -0.383400
 H        -3.406227         0.969544        -1.169397
 H        -2.679736        -0.859631         1.277391
