19
Iteration:  2461charge 0 multiplicity 1
 O         0.147454        -0.315194         0.171148
 C        -0.866468         0.395032         0.845771
 C        -1.208838         1.975926         0.654725
 C        -2.244077         1.250254         1.686529
 C        -1.104178         0.529470         2.369794
 O        -3.568695         1.752257         2.059759
 C        -4.490495         1.463753         0.954269
 C        -3.636189         0.727523        -0.254988
 C        -2.435012         0.147408         0.669935
 H        -0.054520        -0.281674        -0.801521
 H        -0.250942         2.394624         1.002748
 H        -1.583488         2.216568        -0.401705
 H        -0.397778         1.154710         2.803823
 H        -1.242330        -0.288053         3.049781
 H        -5.359600         0.790424         1.186341
 H        -4.814917         2.436763         0.631248
 H        -4.142184        -0.142684        -0.702458
 H        -3.327083         1.419481        -0.903035
 H        -2.923945        -0.770677         0.972781
