19
Iteration:   382
 O         0.128885        -0.244646         0.192239
 C        -0.916888         0.480620         0.717282
 C        -1.058297         1.965621         0.750305
 C        -2.273546         1.259974         1.570811
 C        -1.258344         0.412072         2.294536
 O        -3.555677         1.791488         1.983702
 C        -4.464308         1.409176         1.042382
 C        -3.621754         0.728182        -0.203167
 C        -2.478199         0.124557         0.616443
 H         0.762361        -0.112254         0.885947
 H        -0.430254         2.497026         1.524040
 H        -1.136806         2.404647        -0.160816
 H        -0.378023         0.842995         2.879666
 H        -1.653304        -0.489617         2.690479
 H        -5.199273         0.660509         1.456558
 H        -5.046529         2.199457         0.723716
 H        -4.119532        -0.047011        -0.692743
 H        -3.294776         1.427072        -0.947673
 H        -2.486800        -0.895100         0.989112
