19
Iteration:   736
 O         0.030151        -0.240684         0.078134
 C        -0.906664         0.382265         0.822369
 C        -1.201593         1.930422         0.805984
 C        -2.326719         1.239722         1.712274
 C        -1.070415         0.454780         2.386433
 O        -3.506455         1.937590         1.929499
 C        -4.454672         1.328380         0.911544
 C        -3.585213         0.677784        -0.261559
 C        -2.476634         0.096588         0.722227
 H         0.863555         0.258061         0.109481
 H        -0.557450         2.650946         1.314505
 H        -1.476787         2.391066        -0.174342
 H        -0.216619         1.071453         2.856090
 H        -1.158320        -0.485193         2.917162
 H        -4.996589         0.666204         1.585805
 H        -5.065191         2.190045         0.557311
 H        -4.135978        -0.004944        -1.025449
 H        -3.277473         1.560579        -0.849324
 H        -2.765126        -0.972056         1.026561
