19
Iteration:  3716
 O         0.116414        -0.259927         0.186337
 C        -0.928174         0.454075         0.760506
 C        -1.341309         2.038945         0.643248
 C        -2.336176         1.245242         1.705089
 C        -0.923796         0.552678         2.356589
 O        -3.593022         1.741668         2.047699
 C        -4.291747         1.670546         0.728878
 C        -3.621493         0.431315        -0.080629
 C        -2.506930        -0.005736         0.823063
 H         0.013211        -0.082026        -0.818864
 H        -0.601197         2.569608         1.191189
 H        -1.823752         2.583532        -0.171425
 H        -0.194037         1.227747         2.787414
 H        -1.105955        -0.427982         2.791845
 H        -5.371762         1.587904         0.869470
 H        -4.155783         2.573189         0.095569
 H        -4.342495        -0.351347        -0.240021
 H        -3.419926         0.761520        -1.226607
 H        -2.640831        -1.002819         1.382157
