19
Iteration:  3311charge 0 multiplicity 1
 O         0.246025        -0.268564         0.240439
 C        -0.853664         0.421701         0.766861
 C        -1.172323         1.921226         0.647327
 C        -2.251037         1.316248         1.630223
 C        -1.282089         0.455260         2.286612
 O        -3.467079         1.953405         1.959621
 C        -4.464182         1.273457         1.023513
 C        -3.754300         0.723909        -0.171929
 C        -2.413604         0.196725         0.598335
 H         0.017431        -1.244264         0.439979
 H        -0.414121         2.698592         0.982301
 H        -1.513636         2.311823        -0.294482
 H        -0.531770         0.865905         3.001849
 H        -1.592740        -0.551958         2.765887
 H        -4.826218         0.403747         1.746843
 H        -5.415082         1.792156         0.942855
 H        -4.242906        -0.002916        -0.773032
 H        -3.525653         1.607162        -0.810382
 H        -2.775726        -0.728906         1.054755
