19
Iteration:  3914charge 0 multiplicity 1
 O         0.285114        -0.291077         0.236134
 C        -0.832549         0.438220         0.743316
 C        -1.131972         1.890771         0.516444
 C        -2.312843         1.358367         1.577640
 C        -1.102231         0.514996         2.306293
 O        -3.548311         1.908721         1.974954
 C        -4.528489         1.299131         1.045306
 C        -3.788126         0.658012        -0.178309
 C        -2.501120         0.163786         0.716770
 H         0.835465        -0.599128         0.937415
 H        -0.385215         2.536208         0.998359
 H        -1.476403         2.145664        -0.442862
 H        -0.416127         0.994949         2.978755
 H        -1.517719        -0.222114         2.967168
 H        -5.049290         0.479462         1.658044
 H        -5.207242         2.176286         0.722632
 H        -4.533081        -0.104317        -0.541830
 H        -3.542825         1.496023        -0.957044
 H        -2.785961        -0.860916         1.198187
