19
Iteration:  4902
 O         0.070485        -0.274111        -0.001318
 C        -0.864103         0.389536         0.806476
 C        -1.199039         1.953485         0.650198
 C        -2.254957         1.289824         1.676724
 C        -1.035469         0.605784         2.367662
 O        -3.544464         1.876606         2.002304
 C        -4.442627         1.510396         0.910324
 C        -3.691349         0.458486        -0.086580
 C        -2.473543         0.088254         0.736233
 H         0.695307        -0.616264         0.633251
 H        -0.553815         2.711124         1.114516
 H        -1.525600         2.281803        -0.346891
 H        -0.462936         1.310100         2.946903
 H        -1.194993        -0.298237         2.965688
 H        -5.432927         1.120142         1.298910
 H        -4.692527         2.478020         0.372537
 H        -4.362496        -0.413156        -0.497949
 H        -3.307954         0.953542        -0.917062
 H        -2.709759        -0.916585         1.308993
