19
Iteration:  4528charge 0 multiplicity 1
 O         0.189898        -0.246412         0.132356
 C        -0.884164         0.406877         0.862129
 C        -1.232456         1.984015         0.638054
 C        -2.304482         1.397928         1.625065
 C        -1.099165         0.499855         2.302169
 O        -3.480504         1.956672         1.910151
 C        -4.460844         1.394187         0.978355
 C        -3.661439         0.484598        -0.064328
 C        -2.475529         0.108899         0.734146
 H        -0.259846        -1.053798        -0.336298
 H        -0.573147         2.637470         1.290720
 H        -1.551170         2.226501        -0.413856
 H        -0.195519         0.957107         2.830307
 H        -1.602506        -0.384462         2.780565
 H        -5.200282         0.633620         1.396660
 H        -4.881203         2.306313         0.577484
 H        -4.270095        -0.378147        -0.414885
 H        -3.453902         1.028329        -0.920511
 H        -2.600022        -0.841790         1.256240
