19
Iteration:  3472
 O         0.224429        -0.114381         0.196419
 C        -0.965876         0.319729         0.815264
 C        -1.403900         1.878509         0.699930
 C        -2.335225         1.146003         1.693414
 C        -0.989714         0.515270         2.337181
 O        -3.538918         1.787407         2.042495
 C        -4.251588         1.740099         0.679609
 C        -3.730523         0.539447        -0.069520
 C        -2.477885        -0.011755         0.732347
 H         0.138471        -0.046233        -0.767854
 H        -0.722949         2.548801         1.177254
 H        -1.662261         2.300862        -0.237078
 H        -0.303187         1.200726         2.748134
 H        -0.982310        -0.417818         2.899998
 H        -5.331205         1.693570         0.890675
 H        -4.108934         2.729257         0.340546
 H        -4.515103        -0.279795         0.015371
 H        -3.541196         0.794289        -1.105947
 H        -2.743401        -1.025308         1.200338
