19
Iteration:  2106
 O         0.123856        -0.271210         0.248426
 C        -0.917532         0.454979         0.803392
 C        -1.178546         1.885589         0.743699
 C        -2.287141         1.308673         1.674528
 C        -1.053338         0.393415         2.310246
 O        -3.475308         1.877873         1.992082
 C        -4.468851         1.294978         0.898577
 C        -3.632512         0.741024        -0.206995
 C        -2.513613         0.221382         0.650878
 H         0.064991        -0.375505        -0.681249
 H        -0.314156         2.514463         1.153762
 H        -1.557990         2.215458        -0.293551
 H        -0.359296         1.105710         2.953174
 H        -1.293533        -0.547981         2.673927
 H        -5.108421         0.456548         1.313776
 H        -5.183853         2.128179         0.759922
 H        -4.412415         0.065197        -0.863355
 H        -3.357479         1.630088        -0.884368
 H        -2.892688        -0.698755         1.169737
