19
Iteration:   580charge 0 multiplicity 1
 O         0.023831        -0.202290         0.061752
 C        -0.960711         0.490714         0.776451
 C        -1.213119         2.042336         0.796922
 C        -2.243114         1.240873         1.775289
 C        -1.055054         0.373809         2.329738
 O        -3.668744         1.810554         2.031473
 C        -4.307343         1.598027         0.742994
 C        -3.612997         0.475802        -0.101740
 C        -2.415940        -0.003523         0.729945
 H         0.645938         0.530089        -0.305843
 H        -0.433900         2.573151         1.231523
 H        -1.767146         2.757355         0.131256
 H        -0.291378         0.742193         2.973033
 H        -1.355514        -0.674826         2.712758
 H        -5.365827         1.402700         0.877221
 H        -4.280693         2.502495         0.122684
 H        -4.195201        -0.335955        -0.471248
 H        -3.051144         0.885293        -1.051359
 H        -2.560388        -0.937360         1.331068
