19
Iteration:  1258charge 0 multiplicity 1
 O        -0.014398        -0.312210         0.010744
 C        -0.913566         0.424569         0.870494
 C        -1.230878         1.977055         0.747526
 C        -2.299430         1.341239         1.711510
 C        -1.177358         0.560842         2.391033
 O        -3.521924         1.672272         1.966264
 C        -4.359813         1.547633         0.866247
 C        -3.558321         0.632553        -0.133105
 C        -2.371518         0.075791         0.693071
 H         0.785385         0.241390        -0.132296
 H        -0.583573         2.697248         1.323107
 H        -1.491070         2.429378        -0.167645
 H        -0.466386         1.229397         3.182583
 H        -1.368473        -0.423079         2.799148
 H        -5.195001         0.791698         1.231750
 H        -4.732071         2.461598         0.344139
 H        -4.143761        -0.362701        -0.367016
 H        -3.293138         1.130321        -1.044562
 H        -2.668198        -0.881398         1.068653
