19
Iteration:   521
 O         0.230618        -0.159335         0.209464
 C        -0.906201         0.398627         0.732061
 C        -1.373502         1.815505         0.607253
 C        -2.336342         1.151725         1.734465
 C        -1.150027         0.542837         2.330065
 O        -3.579506         1.657954         2.190857
 C        -4.275039         1.758298         0.864755
 C        -3.620657         0.592369        -0.213410
 C        -2.498751         0.043882         0.639021
 H         0.682643         0.507278        -0.269040
 H        -0.552089         2.546712         0.882826
 H        -1.790551         1.986665        -0.332146
 H        -0.473372         1.263206         2.872279
 H        -1.288452        -0.332962         2.871234
 H        -5.361712         1.596127         1.055030
 H        -4.199999         2.767003         0.460413
 H        -4.388612        -0.203923        -0.583800
 H        -3.121992         0.988695        -1.089790
 H        -2.662711        -0.948551         1.044277
