19
Iteration:  4903charge 0 multiplicity 1
 O         0.070635        -0.275488         0.004087
 C        -0.867763         0.388495         0.799800
 C        -1.199830         1.962942         0.645401
 C        -2.261462         1.283256         1.672156
 C        -1.037202         0.600848         2.369423
 O        -3.539882         1.880801         2.005089
 C        -4.443037         1.516490         0.912202
 C        -3.686267         0.451031        -0.083186
 C        -2.469010         0.089084         0.728884
 H         0.694846        -0.586180         0.627444
 H        -0.544054         2.713693         1.155172
 H        -1.538558         2.286706        -0.342468
 H        -0.453566         1.321255         2.958174
 H        -1.205790        -0.322525         2.983767
 H        -5.401035         1.115410         1.297751
 H        -4.697148         2.433169         0.381067
 H        -4.391739        -0.409218        -0.499864
 H        -3.320084         0.943998        -0.946895
 H        -2.724129        -0.887423         1.329680
