19
Iteration:  3168charge 0 multiplicity 1
 O         0.241283        -0.016603         0.160541
 C        -0.945095         0.403987         0.763180
 C        -1.378813         1.892651         0.604963
 C        -2.287979         1.231525         1.691209
 C        -1.105430         0.478152         2.320356
 O        -3.489020         1.739765         2.071357
 C        -4.250865         1.773661         0.772313
 C        -3.735123         0.485338        -0.069301
 C        -2.517752        -0.113662         0.749009
 H         0.364226        -0.977920         0.481293
 H        -0.671034         2.659209         0.961168
 H        -1.944914         2.210417        -0.299967
 H        -0.378189         1.058529         2.877594
 H        -1.356905        -0.520377         2.841414
 H        -5.363476         1.882952         0.902282
 H        -4.087995         2.663542         0.220294
 H        -4.466573        -0.304880        -0.240054
 H        -3.419897         0.823945        -1.035074
 H        -2.716300        -1.083062         1.237073
