19
Iteration:  3630charge 0 multiplicity 1
 O         0.259341        -0.174090         0.252004
 C        -0.931535         0.417066         0.756658
 C        -1.143564         1.856646         0.695906
 C        -2.258622         1.371789         1.611121
 C        -1.080659         0.424693         2.266316
 O        -3.458532         1.934578         1.943894
 C        -4.552522         1.392419         0.909436
 C        -3.742760         0.569189        -0.170263
 C        -2.522749         0.140281         0.759318
 H        -0.045499        -1.055252        -0.111857
 H        -0.457277         2.584216         1.109690
 H        -1.691794         2.191674        -0.225065
 H        -0.215871         0.979792         2.810754
 H        -1.380392        -0.466018         2.905045
 H        -5.177955         0.735892         1.565096
 H        -5.304117         2.192803         0.667147
 H        -4.436963        -0.105785        -0.595051
 H        -3.282978         1.385980        -0.829808
 H        -2.683512        -0.866905         1.260089
