19
Iteration:  2823charge 0 multiplicity 1
 O         0.045169        -0.338539         0.039624
 C        -0.906219         0.449059         0.760584
 C        -1.330256         2.008139         0.714189
 C        -2.263376         1.296389         1.761656
 C        -1.102838         0.523871         2.377079
 O        -3.563755         1.771712         2.058927
 C        -4.263318         1.506308         0.813898
 C        -3.601817         0.588775        -0.136227
 C        -2.441269         0.092674         0.689840
 H         0.942760        -0.042573         0.410139
 H        -0.660091         2.668553         1.151602
 H        -1.902528         2.308328        -0.143406
 H        -0.306844         1.125725         2.838351
 H        -1.562541        -0.461120         2.800061
 H        -5.262737         1.017730         1.093331
 H        -4.394672         2.504660         0.433004
 H        -4.258603        -0.228670        -0.532533
 H        -3.269949         1.169739        -1.023927
 H        -2.783950        -0.783349         1.257116
