19
Iteration:  1011charge 0 multiplicity 1
 O        -0.010539        -0.247694         0.055316
 C        -0.879775         0.388203         0.845434
 C        -1.129212         1.913318         0.741094
 C        -2.269757         1.271930         1.626241
 C        -1.108845         0.534653         2.403701
 O        -3.513859         1.862139         1.885107
 C        -4.520565         1.290868         0.919936
 C        -3.552581         0.743040        -0.162560
 C        -2.497541         0.108099         0.739763
 H         0.975749        -0.331977         0.097273
 H        -0.555234         2.663035         1.389304
 H        -1.558345         2.357754        -0.160645
 H        -0.447644         1.046054         3.008480
 H        -1.355822        -0.353178         2.920222
 H        -4.982732         0.484911         1.469539
 H        -5.218280         2.129146         0.826488
 H        -4.000648         0.200648        -1.051432
 H        -3.007657         1.566516        -0.686036
 H        -2.630244        -0.798065         1.400623
