19
Iteration:  2428charge 0 multiplicity 1
 O         0.162863        -0.362444         0.265638
 C        -0.943162         0.417584         0.694217
 C        -1.215618         2.011517         0.733235
 C        -2.261018         1.352180         1.662745
 C        -1.179336         0.448972         2.257886
 O        -3.475687         1.859779         1.996493
 C        -4.476943         1.383460         1.029191
 C        -3.615996         0.648579        -0.155130
 C        -2.452923         0.109356         0.585838
 H         0.479221         0.160684        -0.561745
 H        -0.355340         2.541926         1.255988
 H        -1.454457         2.646833        -0.212491
 H        -0.496876         1.043223         2.802046
 H        -1.652499        -0.514430         2.706945
 H        -5.244930         0.753431         1.567891
 H        -4.935095         2.293049         0.704409
 H        -4.221431        -0.071043        -0.791691
 H        -3.250539         1.289338        -0.861884
 H        -2.782313        -0.767513         1.139651
