19
Iteration:  2784
 O         0.110202        -0.232453         0.151940
 C        -0.946951         0.373820         0.795461
 C        -1.090732         1.883799         0.690259
 C        -2.274021         1.255703         1.661834
 C        -1.133384         0.501279         2.392826
 O        -3.532670         1.857823         1.975816
 C        -4.425901         1.376266         0.935363
 C        -3.649516         0.699653        -0.176037
 C        -2.512874         0.099435         0.703900
 H         0.350596         0.376173        -0.524808
 H        -0.254544         2.653372         1.056880
 H        -1.504330         2.267101        -0.286808
 H        -0.399455         1.107534         3.026729
 H        -1.376759        -0.374191         2.955887
 H        -5.105612         0.688681         1.445618
 H        -4.889466         2.310132         0.431333
 H        -4.280985        -0.009081        -0.702181
 H        -3.242874         1.441128        -0.883224
 H        -2.800436        -0.952621         1.031594
