19
Iteration:   624charge 0 multiplicity 1
 O         0.023005        -0.174942         0.041963
 C        -0.957212         0.407623         0.753601
 C        -1.227341         1.878711         0.740623
 C        -2.299819         1.273266         1.716324
 C        -1.161576         0.565173         2.497004
 O        -3.505297         1.767838         2.057040
 C        -4.349520         1.482968         0.852645
 C        -3.547814         0.645567        -0.201309
 C        -2.464582        -0.024196         0.646442
 H         0.924438         0.271183         0.244100
 H        -0.462233         2.532296         0.985083
 H        -1.309273         2.238443        -0.349117
 H        -0.436552         1.160465         3.061335
 H        -1.458678        -0.371045         3.094506
 H        -5.149907         0.848425         1.226245
 H        -4.811448         2.377788         0.453100
 H        -4.345231         0.139578        -0.734525
 H        -3.161485         1.449967        -0.971576
 H        -2.647938        -1.090009         0.977749
