19
Iteration:  3950
 O         0.082406        -0.330968         0.207408
 C        -0.921944         0.474042         0.723490
 C        -1.246053         1.959752         0.547461
 C        -2.309434         1.286657         1.646962
 C        -1.118647         0.692318         2.312610
 O        -3.517649         1.861030         2.056729
 C        -4.368315         1.312581         0.999714
 C        -3.587014         0.637524        -0.190069
 C        -2.434699         0.056006         0.677787
 H         0.296660        -0.859362         0.934639
 H        -0.495662         2.568647         1.031089
 H        -1.364763         2.558679        -0.375111
 H        -0.382948         1.338785         2.748093
 H        -1.470184        -0.178741         2.886400
 H        -5.182060         0.611624         1.527569
 H        -5.110351         2.077015         0.703881
 H        -4.230103        -0.149223        -0.775243
 H        -3.328547         1.354977        -0.986841
 H        -2.596481        -1.029201         1.095540
