19
Iteration:  3169charge 0 multiplicity 1
 O         0.238546        -0.014218         0.162724
 C        -0.946654         0.412834         0.767557
 C        -1.382753         1.882924         0.601388
 C        -2.279322         1.227928         1.692637
 C        -1.110106         0.475362         2.317888
 O        -3.488581         1.738578         2.071641
 C        -4.247072         1.768559         0.771668
 C        -3.739510         0.492834        -0.071869
 C        -2.517787        -0.112492         0.754115
 H         0.389175        -0.987955         0.450301
 H        -0.680054         2.695790         0.972153
 H        -1.945169         2.196051        -0.306121
 H        -0.411572         1.051039         2.866609
 H        -1.350841        -0.499054         2.854282
 H        -5.336492         1.879219         0.925550
 H        -4.055995         2.696255         0.195947
 H        -4.486930        -0.283265        -0.230394
 H        -3.421773         0.792438        -1.089791
 H        -2.679367        -1.103034         1.248606
