19
Iteration:  4455
 O         0.141465        -0.269171         0.046435
 C        -0.957595         0.405523         0.717399
 C        -1.377559         1.964819         0.570735
 C        -2.295602         1.257466         1.738215
 C        -1.057904         0.644370         2.369100
 O        -3.546627         1.771815         2.053871
 C        -4.338021         1.568728         0.823874
 C        -3.582542         0.576170        -0.096392
 C        -2.469512         0.018385         0.854032
 H         0.601033        -0.867836         0.684660
 H        -0.732575         2.723285         0.949211
 H        -1.797499         2.163834        -0.396716
 H        -0.295239         1.261822         2.909981
 H        -1.287170        -0.257620         2.944841
 H        -5.263346         1.124984         1.243486
 H        -4.503247         2.430083         0.175901
 H        -4.283916        -0.221166        -0.589757
 H        -3.069920         1.138546        -0.967833
 H        -2.606238        -0.965107         1.350453
