19
Iteration:  4334charge 0 multiplicity 1
 O         0.071361        -0.246021         0.100694
 C        -0.907208         0.412372         0.823090
 C        -1.292995         1.966437         0.638079
 C        -2.283877         1.350812         1.673148
 C        -1.013093         0.675488         2.316390
 O        -3.663295         1.664482         2.105850
 C        -4.310119         1.618897         0.789010
 C        -3.571000         0.455959        -0.111489
 C        -2.367659         0.058738         0.766213
 H        -0.347615        -1.062829        -0.348938
 H        -0.747589         2.828350         0.896906
 H        -1.778036         2.197886        -0.267320
 H        -0.345754         1.269983         2.919597
 H        -1.260242        -0.122237         2.958685
 H        -5.377962         1.398152         1.078578
 H        -4.223315         2.578177         0.385273
 H        -4.275572        -0.489418        -0.269367
 H        -3.204003         0.929554        -1.060104
 H        -2.678813        -0.890746         1.307901
