19
Iteration:  1925
 O         0.091770        -0.206716         0.039742
 C        -0.921191         0.448326         0.803920
 C        -1.333184         1.967938         0.698102
 C        -2.272670         1.185418         1.740918
 C        -1.084716         0.488687         2.382452
 O        -3.571202         1.762809         2.043924
 C        -4.268299         1.703272         0.817246
 C        -3.650252         0.495464        -0.148515
 C        -2.436745        -0.030517         0.693285
 H         0.968650         0.298326         0.126370
 H        -0.625398         2.588843         1.130235
 H        -1.919277         2.193198        -0.170551
 H        -0.503251         1.071790         3.099108
 H        -1.431474        -0.481965         2.936920
 H        -5.365269         1.676974         1.175006
 H        -4.007882         2.717858         0.246350
 H        -4.380360        -0.264142        -0.169278
 H        -3.395075         0.998531        -1.080379
 H        -2.730644        -1.009339         1.150088
