19
Iteration:  4898
 O         0.071591        -0.268653        -0.014807
 C        -0.858515         0.408333         0.821609
 C        -1.203579         1.905917         0.668430
 C        -2.241251         1.316565         1.684031
 C        -1.035989         0.623031         2.358046
 O        -3.557191         1.854516         1.992713
 C        -4.446738         1.491850         0.893861
 C        -3.712970         0.488720        -0.092384
 C        -2.487694         0.070730         0.784380
 H         0.711408        -0.751478         0.611341
 H        -0.534410         2.702732         0.981147
 H        -1.503401         2.238612        -0.344545
 H        -0.386927         1.322817         2.901934
 H        -1.198946        -0.271748         2.927218
 H        -5.439876         1.156738         1.293436
 H        -4.644106         2.520849         0.379713
 H        -4.187768        -0.351955        -0.423681
 H        -3.260484         1.097546        -0.953401
 H        -2.613054        -0.901415         1.193656
