19
Iteration:  2243
 O         0.183724        -0.216946         0.148225
 C        -0.889389         0.441560         0.697825
 C        -1.260709         1.970407         0.792812
 C        -2.310719         1.246936         1.703563
 C        -1.104651         0.458640         2.282750
 O        -3.593817         1.663992         2.080662
 C        -4.224047         1.787789         0.726870
 C        -3.723679         0.449826        -0.102487
 C        -2.514993         0.037915         0.779184
 H         0.487957         0.245520        -0.703822
 H        -0.565196         2.586845         1.329566
 H        -1.708655         2.565065         0.040114
 H        -0.412262         0.987485         2.883857
 H        -1.404536        -0.513490         2.734312
 H        -5.284809         1.797835         0.931637
 H        -3.947725         2.750745         0.286814
 H        -4.577226        -0.363515        -0.268425
 H        -3.679218         0.731322        -1.160974
 H        -2.670514        -0.869353         1.339380
