19
Iteration:   822charge 0 multiplicity 1
 O         0.190742        -0.175808         0.080885
 C        -0.941391         0.403947         0.720010
 C        -1.469362         1.932649         0.707729
 C        -2.360492         1.116420         1.693339
 C        -1.141831         0.516964         2.409332
 O        -3.497852         1.777585         2.189975
 C        -4.198358         1.732610         0.729378
 C        -3.643364         0.530753        -0.163400
 C        -2.454187        -0.066022         0.722331
 H         0.911696         0.396863         0.124619
 H        -0.878298         2.746110         1.217660
 H        -2.079479         2.239148        -0.235536
 H        -0.477883         1.232643         2.970928
 H        -1.050057        -0.473318         2.797244
 H        -5.250061         1.620904         1.002943
 H        -4.026699         2.631736         0.073213
 H        -4.487086        -0.206036        -0.592219
 H        -3.187158         1.027236        -1.088975
 H        -2.717435        -1.062861         1.212712
