19
Iteration:  4760
 O         0.102631        -0.262667         0.024658
 C        -0.915409         0.433718         0.796599
 C        -1.349495         1.831905         0.578101
 C        -2.345469         1.211761         1.828595
 C        -1.007058         0.640198         2.294960
 O        -3.583976         1.837540         2.037594
 C        -4.314254         1.603854         0.784723
 C        -3.611695         0.531837        -0.089645
 C        -2.469968         0.037173         0.876366
 H         0.950293         0.110375         0.296998
 H        -0.669743         2.644843         0.836473
 H        -1.829421         2.084490        -0.417107
 H        -0.199878         1.283612         2.749588
 H        -1.033020        -0.225603         3.002179
 H        -5.334512         1.308455         1.019007
 H        -4.311223         2.494473         0.310922
 H        -4.370897        -0.402660        -0.234337
 H        -3.292496         0.783063        -1.084054
 H        -2.717093        -0.968722         1.323546
