19
Iteration:  4991charge 0 multiplicity 1
 O         0.056257        -0.253570         0.209509
 C        -0.971031         0.419420         0.757668
 C        -1.266888         1.883025         0.578398
 C        -2.243677         1.319530         1.663094
 C        -1.077871         0.608816         2.320463
 O        -3.441142         1.834020         2.009755
 C        -4.457889         1.431522         0.975687
 C        -3.540269         0.628728        -0.150332
 C        -2.444667         0.058366         0.736159
 H        -0.142543        -0.693051        -0.599202
 H        -0.619398         2.668607         0.982573
 H        -1.569976         2.291075        -0.355316
 H        -0.347871         1.166372         2.890805
 H        -1.468784        -0.278835         2.850090
 H        -5.278945         0.721166         1.407918
 H        -4.991146         2.410100         0.707771
 H        -4.208993        -0.210244        -0.542229
 H        -3.204098         1.251624        -0.927994
 H        -2.639115        -1.005589         1.143413
