19
Iteration:  2741
 O         0.126402        -0.313948         0.305561
 C        -0.905185         0.507487         0.787288
 C        -1.197147         1.989484         0.694675
 C        -2.263806         1.269705         1.645552
 C        -1.131676         0.405078         2.291179
 O        -3.479604         1.893040         1.933808
 C        -4.477657         1.308953         1.042039
 C        -3.663829         0.731917        -0.178934
 C        -2.443612         0.137998         0.547388
 H         0.054829        -0.667169        -0.552158
 H        -0.288056         2.428111         1.186752
 H        -1.417592         2.561454        -0.205898
 H        -0.437539         1.105418         2.918239
 H        -1.093339        -0.573106         2.727369
 H        -5.048405         0.437138         1.463517
 H        -5.242703         2.133583         0.713216
 H        -4.352140         0.051168        -0.689538
 H        -3.482876         1.597331        -0.853119
 H        -2.705295        -0.745658         1.149334
