19
Iteration:  3934charge 0 multiplicity 1
 O         0.165393        -0.323444         0.236717
 C        -0.910428         0.400795         0.809810
 C        -1.211149         1.942465         0.598742
 C        -2.195010         1.305402         1.502951
 C        -1.163067         0.677066         2.318639
 O        -3.474830         1.789684         1.969926
 C        -4.523671         1.333866         1.078216
 C        -3.677666         0.660208        -0.149772
 C        -2.464475         0.154889         0.589144
 H         0.615613        -0.745894         0.956625
 H        -0.532549         2.739585         0.994298
 H        -1.644397         2.074824        -0.390156
 H        -0.401579         1.364242         2.799650
 H        -1.209792        -0.243497         2.925697
 H        -5.164581         0.572561         1.552734
 H        -5.230059         2.192688         0.814676
 H        -4.221582        -0.115828        -0.627314
 H        -3.376416         1.476619        -0.863319
 H        -2.797097        -0.674095         1.184931
