19
Iteration:  3661charge 0 multiplicity 1
 O         0.141874        -0.275768         0.142364
 C        -0.900694         0.467245         0.741997
 C        -1.264480         1.891504         0.648396
 C        -2.308091         1.259710         1.699671
 C        -1.169852         0.611344         2.403560
 O        -3.484681         1.821008         2.016179
 C        -4.403384         1.499311         0.867568
 C        -3.584823         0.571770        -0.104058
 C        -2.437226         0.045762         0.734900
 H        -0.278323        -0.773410        -0.581340
 H        -0.638668         2.714012         0.906404
 H        -1.768414         2.284381        -0.235663
 H        -0.487233         1.391038         2.843342
 H        -1.359146        -0.248640         3.059609
 H        -5.209168         0.944602         1.311885
 H        -4.616505         2.435578         0.334263
 H        -4.241575        -0.106447        -0.628428
 H        -3.104514         1.284628        -0.947879
 H        -2.645732        -1.012720         1.137990
