19
Iteration:  3523
 O        -0.010304        -0.281868         0.154922
 C        -0.962445         0.429755         0.756896
 C        -1.223532         1.925524         0.685864
 C        -2.256521         1.287587         1.707705
 C        -1.154748         0.599814         2.381478
 O        -3.489867         1.744053         2.003838
 C        -4.352444         1.500087         0.872134
 C        -3.554888         0.594319        -0.179970
 C        -2.439740         0.078248         0.664529
 H         0.964507         0.003257         0.283125
 H        -0.462290         2.702762         0.948003
 H        -1.679734         2.342123        -0.293607
 H        -0.332193         1.211502         2.771803
 H        -1.477797        -0.176069         3.092578
 H        -5.076717         0.838994         1.367679
 H        -4.764987         2.511535         0.574949
 H        -4.342376        -0.202268        -0.343391
 H        -3.452907         0.997088        -1.164275
 H        -2.707255        -0.816038         1.191997
