19
Iteration:  3003
 O         0.164653        -0.229162         0.072883
 C        -0.882616         0.455367         0.830408
 C        -1.195046         1.919799         0.629384
 C        -2.294517         1.204010         1.724143
 C        -1.049395         0.486776         2.368418
 O        -3.574346         1.878236         1.930819
 C        -4.504979         1.437970         0.954875
 C        -3.597039         0.675961        -0.156767
 C        -2.507410         0.101104         0.733922
 H         0.351152        -1.013756         0.641704
 H        -0.441755         2.553068         1.089677
 H        -1.589399         2.141594        -0.391738
 H        -0.315470         1.063106         2.914151
 H        -1.286452        -0.479682         2.764047
 H        -5.269322         1.002601         1.428089
 H        -5.027854         2.312592         0.522275
 H        -4.247512         0.027612        -0.760318
 H        -3.152111         1.368506        -0.786660
 H        -2.756268        -0.928435         1.136393
