19
Iteration:    70
 O         0.047852        -0.373427         0.213110
 C        -0.874399         0.577254         0.729627
 C        -1.076127         2.001996         0.913351
 C        -2.241752         1.272362         1.647302
 C        -1.294998         0.327393         2.357148
 O        -3.500038         1.859179         1.918812
 C        -4.485795         1.271568         1.051841
 C        -3.650314         0.755809        -0.262155
 C        -2.395329         0.285547         0.457574
 H         0.893657        -0.148540         0.480283
 H        -0.243758         2.338267         1.665343
 H        -1.301584         2.658640         0.082440
 H        -0.648779         0.778791         3.212909
 H        -1.549476        -0.689862         2.347214
 H        -5.008031         0.398483         1.330005
 H        -5.209227         2.040737         0.682210
 H        -4.091149        -0.117462        -0.823404
 H        -3.418843         1.631950        -1.040087
 H        -2.629736        -0.764919         0.845850
