19
Iteration:   269
 O         0.155020        -0.242458         0.113344
 C        -0.932601         0.511500         0.753418
 C        -1.175924         2.042498         0.841325
 C        -2.308043         1.147928         1.632289
 C        -1.201995         0.480866         2.375974
 O        -3.592757         1.624521         2.118379
 C        -4.377264         1.695992         0.914691
 C        -3.600508         0.582252        -0.242399
 C        -2.383140         0.103096         0.518891
 H         0.048697        -1.083512         0.717665
 H        -0.518388         2.562362         1.439252
 H        -1.469931         2.684474        -0.071238
 H        -0.563091         1.158441         2.914217
 H        -1.346685        -0.567033         2.832404
 H        -5.433271         1.447864         1.116628
 H        -4.430371         2.670910         0.329717
 H        -4.214444        -0.294784        -0.743742
 H        -3.345447         1.268932        -1.116513
 H        -2.630910        -0.936039         0.977750
