19
Iteration:  2506charge 0 multiplicity 1
 O         0.099185        -0.183212         0.140427
 C        -0.989903         0.450357         0.781596
 C        -1.222929         1.945085         0.737855
 C        -2.283627         1.235286         1.727200
 C        -1.015604         0.432175         2.369386
 O        -3.529650         1.814873         2.044141
 C        -4.409009         1.582502         0.829900
 C        -3.578134         0.549528        -0.219854
 C        -2.444040         0.095996         0.694180
 H        -0.201498        -0.768373        -0.632598
 H        -0.681512         2.724876         1.320999
 H        -1.901821         2.259719        -0.126704
 H        -0.312265         0.928987         2.911670
 H        -1.166783        -0.557638         2.907483
 H        -5.320087         1.172390         1.305439
 H        -4.562015         2.520881         0.270079
 H        -4.288383        -0.289742        -0.430878
 H        -3.225552         1.052266        -1.012268
 H        -2.791071        -0.838222         1.129108
