19
Iteration:  4124
 O         0.191684        -0.174368         0.053250
 C        -0.945974         0.380785         0.717898
 C        -1.248344         1.934584         0.699073
 C        -2.236632         1.370179         1.678662
 C        -1.058451         0.584101         2.316200
 O        -3.527104         1.825881         1.937016
 C        -4.427287         1.522419         0.842499
 C        -3.693800         0.431997        -0.048409
 C        -2.534245         0.067790         0.843163
 H         0.558191        -0.948338         0.544671
 H        -0.597005         2.460959         1.333743
 H        -1.650653         2.291908        -0.253106
 H        -0.312697         1.167889         2.780501
 H        -1.192457        -0.259420         2.952443
 H        -5.462696         1.226984         1.265275
 H        -4.510595         2.382204         0.190893
 H        -4.268494        -0.601357        -0.228346
 H        -3.377748         0.979752        -0.972791
 H        -2.744554        -0.821574         1.578211
