19
Iteration:   980
 O         0.047575        -0.359597         0.156430
 C        -0.907745         0.395090         0.729620
 C        -1.200163         1.981735         0.773937
 C        -2.260508         1.369889         1.646552
 C        -1.165649         0.452238         2.339393
 O        -3.569163         1.946365         2.020601
 C        -4.454335         1.292663         0.981753
 C        -3.558061         0.670129        -0.167176
 C        -2.362845         0.168636         0.547221
 H         0.959633        -0.076979         0.160692
 H        -0.596245         2.699675         1.292202
 H        -1.624114         2.486336        -0.118729
 H        -0.357241         0.898021         2.859839
 H        -1.640966        -0.490871         2.872614
 H        -4.962816         0.427472         1.414132
 H        -5.207067         2.021738         0.657121
 H        -4.068444        -0.169057        -0.596029
 H        -3.349521         1.468484        -0.952925
 H        -2.562193        -0.817167         0.994829
