19
Iteration:  1201charge 0 multiplicity 1
 O         0.178270        -0.204372         0.078842
 C        -0.889851         0.365192         0.813671
 C        -1.339492         1.875931         0.692135
 C        -2.314043         1.274186         1.640472
 C        -1.068152         0.524566         2.389854
 O        -3.577743         1.667287         2.078070
 C        -4.338903         1.701839         0.834711
 C        -3.659194         0.575150        -0.128631
 C        -2.464151         0.013625         0.661502
 H         0.964659         0.196932         0.476802
 H        -0.830991         2.717864         1.222548
 H        -1.882787         2.229648        -0.211233
 H        -0.206259         1.247263         2.725313
 H        -1.354719        -0.354357         3.043804
 H        -5.488015         1.713301         1.108120
 H        -4.188115         2.675233         0.346374
 H        -4.204437        -0.333913        -0.567844
 H        -3.354627         1.204728        -1.032252
 H        -2.842099        -0.884376         1.166906
