19
Iteration:  2331
 O         0.076060        -0.336038         0.243066
 C        -0.958538         0.449395         0.807166
 C        -1.266477         2.012500         0.722913
 C        -2.256054         1.275121         1.701736
 C        -0.964322         0.459894         2.365182
 O        -3.497662         1.737299         2.046474
 C        -4.420553         1.490921         0.836165
 C        -3.613616         0.683087        -0.180610
 C        -2.452247         0.153025         0.625711
 H        -0.104947        -0.434021        -0.761449
 H        -0.671514         2.793017         1.190558
 H        -1.576760         2.389425        -0.273719
 H        -0.372825         1.181977         2.728810
 H        -1.325236        -0.515188         2.852701
 H        -5.220434         0.853223         1.169525
 H        -4.832592         2.408500         0.476085
 H        -4.338495        -0.099942        -0.719371
 H        -3.555615         1.366234        -1.073880
 H        -2.729546        -0.857478         0.887308
