19
Iteration:  2342charge 0 multiplicity 1
 O         0.027677        -0.341924         0.247925
 C        -0.861966         0.484982         0.792739
 C        -1.268214         1.991570         0.732975
 C        -2.254471         1.250226         1.680486
 C        -1.048729         0.470216         2.318932
 O        -3.506543         1.802478         2.033092
 C        -4.381980         1.394516         0.916511
 C        -3.645984         0.700154        -0.269276
 C        -2.433338         0.178777         0.625989
 H        -0.066088        -0.271538        -0.696355
 H        -0.563403         2.683421         1.183860
 H        -1.837825         2.326870        -0.149862
 H        -0.335439         0.880506         2.950732
 H        -1.340570        -0.504472         2.862192
 H        -5.226531         0.877929         1.341677
 H        -4.714257         2.332907         0.509525
 H        -4.269536        -0.244428        -0.613788
 H        -3.217744         1.380810        -1.046397
 H        -2.690002        -0.679890         1.222425
