19
Iteration:  3781charge 0 multiplicity 1
 O         0.261582        -0.244095         0.281813
 C        -0.858400         0.390817         0.728820
 C        -1.388737         1.874350         0.572469
 C        -2.271413         1.266221         1.600859
 C        -1.056139         0.606455         2.289537
 O        -3.521508         1.725282         2.057902
 C        -4.381983         1.636716         0.817405
 C        -3.741860         0.528420        -0.032715
 C        -2.527253         0.050434         0.777757
 H         0.505918         0.162427        -0.550895
 H        -0.671947         2.511392         1.079753
 H        -1.793273         2.386638        -0.321904
 H        -0.407078         1.331173         2.713615
 H        -1.314962        -0.300184         2.658062
 H        -5.399042         1.555859         1.179641
 H        -4.077908         2.612576         0.409772
 H        -4.310029        -0.340198        -0.232796
 H        -3.463954         0.810699        -1.142928
 H        -2.858974        -0.881265         1.366923
