19
Iteration:  4293
 O         0.170031        -0.178946         0.049596
 C        -0.934633         0.403758         0.783848
 C        -1.295673         1.903103         0.671446
 C        -2.290648         1.314209         1.679937
 C        -1.134812         0.572023         2.365072
 O        -3.562521         1.957688         2.018069
 C        -4.462580         1.526188         0.942594
 C        -3.551370         0.419493        -0.125251
 C        -2.369493         0.009672         0.721570
 H        -0.000093        -1.120985         0.058228
 H        -0.515269         2.466909         1.169874
 H        -1.503223         2.315682        -0.314669
 H        -0.295237         1.112102         2.818920
 H        -1.437711        -0.265704         2.960217
 H        -5.236043         0.941088         1.407060
 H        -4.734167         2.438306         0.302064
 H        -4.203335        -0.348631        -0.486176
 H        -3.359199         0.980270        -1.130287
 H        -2.626006        -0.950695         1.295298
