19
Iteration:   674
 O         0.053373        -0.405697         0.218235
 C        -0.877906         0.496507         0.721800
 C        -1.153113         2.030259         0.751175
 C        -2.282212         1.199598         1.657315
 C        -1.088884         0.533718         2.352948
 O        -3.527640         1.800474         1.981427
 C        -4.470866         1.338057         0.956046
 C        -3.720631         0.749658        -0.239179
 C        -2.383791         0.205816         0.579586
 H         0.911184        -0.165122         0.619424
 H        -0.484397         2.727355         1.427980
 H        -1.516867         2.646586        -0.003443
 H        -0.228936         1.063098         2.853917
 H        -1.227864        -0.451070         2.799446
 H        -5.071950         0.473598         1.337540
 H        -5.202785         2.144703         0.760882
 H        -4.169067        -0.205884        -0.469889
 H        -3.784259         1.421082        -1.044628
 H        -2.573735        -0.819209         0.796590
