19
Iteration:   654charge 0 multiplicity 1
 O         0.118151        -0.397983         0.189093
 C        -0.849673         0.433611         0.775915
 C        -1.265011         2.033715         0.745308
 C        -2.280505         1.383525         1.671743
 C        -1.041325         0.471986         2.269759
 O        -3.574417         1.749686         2.081274
 C        -4.493323         1.376033         0.937781
 C        -3.604657         0.701905        -0.259430
 C        -2.475829         0.174001         0.620566
 H         0.957360        -0.082679         0.427783
 H        -0.417252         2.738860         1.028238
 H        -1.629364         2.271341        -0.226444
 H        -0.385393         0.991430         2.879451
 H        -1.263042        -0.467263         2.800588
 H        -5.268763         0.717910         1.369144
 H        -4.991286         2.246555         0.542449
 H        -4.202928         0.027027        -0.830415
 H        -3.236735         1.552865        -0.918688
 H        -2.804757        -0.729380         1.098468
