19
Iteration:  2252charge 0 multiplicity 1
 O         0.226961        -0.251428         0.153184
 C        -0.889051         0.506140         0.712696
 C        -1.294514         1.975408         0.814969
 C        -2.335030         1.126078         1.725846
 C        -1.098262         0.480204         2.276150
 O        -3.551092         1.753378         2.075138
 C        -4.291787         1.708486         0.725423
 C        -3.757236         0.482068        -0.149068
 C        -2.488605         0.028482         0.753040
 H         0.276748         0.244814        -0.735058
 H        -0.588957         2.613808         1.426949
 H        -1.724492         2.456946        -0.085736
 H        -0.287842         0.828144         2.722948
 H        -1.318844        -0.462688         2.856378
 H        -5.336028         1.911444         0.920504
 H        -3.915269         2.609314         0.352626
 H        -4.663296        -0.177212        -0.122464
 H        -3.359117         0.858309        -1.034561
 H        -2.704627        -0.808675         1.375586
