19
Iteration:   712charge 0 multiplicity 1
 O         0.126357        -0.204285         0.034400
 C        -0.927416         0.316406         0.780540
 C        -1.168618         1.885033         0.697709
 C        -2.242632         1.346863         1.664108
 C        -1.204424         0.426401         2.418561
 O        -3.563108         1.922340         1.938237
 C        -4.461701         1.250234         0.956832
 C        -3.525551         0.797576        -0.139177
 C        -2.484675         0.148108         0.720505
 H         1.027763        -0.013858         0.489035
 H        -0.332789         2.474471         1.031425
 H        -1.553263         2.394476        -0.297602
 H        -0.488038         0.848251         3.101792
 H        -1.770600        -0.361800         2.931569
 H        -4.813118         0.422525         1.563655
 H        -5.262829         1.917244         0.626339
 H        -4.125169        -0.055249        -0.590746
 H        -3.285336         1.488638        -1.053549
 H        -2.892601        -0.847314         1.073701
