19
Iteration:  4730charge 0 multiplicity 1
 O        -0.109401        -0.337750         0.042316
 C        -0.923327         0.487591         0.795709
 C        -1.277483         2.043593         0.637545
 C        -2.278886         1.325574         1.716482
 C        -1.069948         0.700861         2.316817
 O        -3.486838         1.684212         2.031848
 C        -4.279162         1.498631         0.818922
 C        -3.620793         0.460893        -0.114839
 C        -2.417353         0.041887         0.845113
 H         0.841223        -0.306347         0.423084
 H        -0.593127         2.809324         1.120370
 H        -1.721787         2.353927        -0.352374
 H        -0.250671         1.339993         2.740854
 H        -1.544127        -0.130132         2.945129
 H        -5.372784         1.399800         0.992794
 H        -4.025717         2.480048         0.234424
 H        -4.213245        -0.440980        -0.293378
 H        -3.187686         0.851430        -0.980357
 H        -2.660792        -0.819562         1.426463
