19
Iteration:  4258charge 0 multiplicity 1
 O         0.189829        -0.110870         0.168006
 C        -0.953100         0.377399         0.756311
 C        -1.223612         1.839853         0.605465
 C        -2.232100         1.258852         1.667925
 C        -1.076241         0.553686         2.392649
 O        -3.468251         1.903086         1.867570
 C        -4.480545         1.390011         0.987376
 C        -3.737160         0.646586        -0.138702
 C        -2.481260         0.037963         0.716002
 H         0.498976        -0.702976         0.818432
 H        -0.358658         2.263546         0.970013
 H        -1.535177         2.157187        -0.324627
 H        -0.244206         1.146988         2.699013
 H        -1.303960        -0.302893         2.900070
 H        -5.259001         0.818902         1.581659
 H        -5.153493         2.169791         0.638171
 H        -4.490393        -0.156336        -0.516501
 H        -3.349494         1.418290        -0.840651
 H        -2.799965        -0.932608         1.286224
