19
Iteration:   895charge 0 multiplicity 1
 O        -0.055813        -0.228111         0.073066
 C        -0.943109         0.484520         0.792478
 C        -1.278675         1.993299         0.764834
 C        -2.265969         1.265452         1.762143
 C        -1.116018         0.461209         2.394430
 O        -3.536055         1.707262         1.995077
 C        -4.331066         1.581933         0.813369
 C        -3.578717         0.560945        -0.151925
 C        -2.337557         0.051065         0.677777
 H         0.840007         0.150251         0.094847
 H        -0.594867         2.664635         1.161249
 H        -1.743405         2.309096        -0.213274
 H        -0.461255         1.042969         3.026836
 H        -1.159981        -0.553093         2.910377
 H        -5.350020         1.216428         1.074462
 H        -4.350843         2.620633         0.462933
 H        -4.191972        -0.195593        -0.428268
 H        -3.413398         1.021596        -1.145848
 H        -2.561129        -0.931823         0.964108
