19
Iteration:  3039
 O         0.270445        -0.202642         0.164051
 C        -0.905280         0.403163         0.736604
 C        -1.124730         1.970322         0.757027
 C        -2.314138         1.290116         1.584417
 C        -1.286836         0.515581         2.329844
 O        -3.417193         1.950778         1.935652
 C        -4.420168         1.371450         1.158606
 C        -3.706479         0.522208        -0.235938
 C        -2.586047         0.156135         0.632865
 H         0.170414        -1.162277         0.210312
 H        -0.256640         2.537897         1.121388
 H        -1.386882         2.477168        -0.205987
 H        -0.538563         0.828442         2.913325
 H        -1.746171        -0.394532         2.736403
 H        -4.959552         0.631195         1.647670
 H        -4.961730         2.143992         0.593009
 H        -4.216638        -0.408523        -0.643826
 H        -3.434537         1.237628        -1.056237
 H        -2.852633        -0.796431         1.159062
