19
Iteration:    54charge 0 multiplicity 1
 O        -0.034238        -0.402141         0.124031
 C        -0.917273         0.498986         0.757445
 C        -1.025671         2.124393         0.895940
 C        -2.288985         1.292139         1.696017
 C        -1.313337         0.353018         2.375685
 O        -3.526731         1.827214         1.947589
 C        -4.399035         1.186161         0.922762
 C        -3.546948         0.831842        -0.258600
 C        -2.376153         0.276326         0.523948
 H         0.784107        -0.248472         0.561039
 H        -0.342009         2.681658         1.511230
 H        -1.452923         2.463463        -0.115828
 H        -0.566687         0.689472         3.022824
 H        -1.683150        -0.578186         3.014673
 H        -4.731907         0.265309         1.552341
 H        -5.190917         1.905012         0.753429
 H        -4.107162         0.092449        -0.793584
 H        -3.386908         1.684229        -0.811681
 H        -2.605633        -0.710945         0.824945
