19
Iteration:   671
 O         0.075119        -0.421443         0.217873
 C        -0.912059         0.500553         0.737791
 C        -1.167808         2.023056         0.748484
 C        -2.264680         1.218710         1.681992
 C        -1.069050         0.524743         2.356434
 O        -3.540114         1.798694         2.000455
 C        -4.475631         1.331936         0.923057
 C        -3.745643         0.763150        -0.239025
 C        -2.358940         0.214535         0.575069
 H         0.904896        -0.180517         0.575391
 H        -0.617626         2.749620         1.364398
 H        -1.474191         2.699090        -0.092540
 H        -0.076417         1.040286         2.793094
 H        -1.270607        -0.459526         2.763270
 H        -5.081160         0.478420         1.291928
 H        -5.185841         2.198783         0.782771
 H        -4.216291        -0.233742        -0.530422
 H        -3.741443         1.417273        -1.080266
 H        -2.541650        -0.871259         0.864924
