19
Iteration:  3264charge 0 multiplicity 1
 O         0.110298        -0.219708         0.016823
 C        -0.909277         0.389812         0.755596
 C        -1.222763         1.923590         0.734193
 C        -2.317535         1.260111         1.687831
 C        -1.140600         0.558717         2.383307
 O        -3.534633         1.844151         1.994097
 C        -4.406788         1.416261         0.878318
 C        -3.501451         0.687894        -0.154405
 C        -2.480475         0.078913         0.782518
 H         0.068169        -1.181819         0.258780
 H        -0.534146         2.566235         1.146600
 H        -1.595092         2.428325        -0.157609
 H        -0.523370         1.215546         3.019274
 H        -1.257324        -0.415514         2.952527
 H        -5.284844         0.854541         1.347131
 H        -4.896428         2.315476         0.417508
 H        -4.210053        -0.080785        -0.579045
 H        -3.012685         1.158419        -0.946336
 H        -2.877789        -0.831101         1.187082
