19
Iteration:  3593charge 0 multiplicity 1
 O         0.125983        -0.232053         0.123161
 C        -0.903860         0.384415         0.815211
 C        -1.169983         1.900087         0.722602
 C        -2.247066         1.300747         1.568049
 C        -1.267213         0.553274         2.390142
 O        -3.413067         1.967355         1.957622
 C        -4.467480         1.271826         1.034391
 C        -3.710318         0.674635        -0.195721
 C        -2.434837         0.130780         0.610340
 H         0.447965        -1.011847         0.723598
 H        -0.407857         2.603471         1.079195
 H        -1.423069         2.199572        -0.258425
 H        -0.492724         1.170029         2.766366
 H        -1.623745        -0.253429         2.993531
 H        -4.688455         0.367394         1.550753
 H        -5.236831         1.981094         0.867799
 H        -4.180740        -0.132889        -0.819989
 H        -3.467394         1.397937        -1.065672
 H        -2.585535        -0.865617         1.157673
