19
Iteration:  3653
 O         0.200875        -0.241775         0.169450
 C        -0.987860         0.393060         0.793471
 C        -1.258323         1.948331         0.626314
 C        -2.277826         1.204922         1.654333
 C        -1.130638         0.571512         2.379001
 O        -3.538265         1.883334         2.003148
 C        -4.352489         1.451789         0.907296
 C        -3.594247         0.600416        -0.140121
 C        -2.472866         0.093906         0.719531
 H        -0.275423        -0.821236        -0.497600
 H        -0.424743         2.555720         1.052808
 H        -1.721074         2.230441        -0.335318
 H        -0.301761         1.254805         2.750540
 H        -1.234400        -0.311954         3.110341
 H        -5.278685         0.973899         1.320579
 H        -4.830361         2.337237         0.426283
 H        -4.237720        -0.219929        -0.422877
 H        -3.379576         1.273053        -0.971471
 H        -2.683589        -0.902356         1.165961
