19
Iteration:  1504charge 0 multiplicity 1
 O         0.131318        -0.227502         0.049030
 C        -0.936564         0.370487         0.765885
 C        -1.332301         1.883435         0.638084
 C        -2.281403         1.282542         1.682157
 C        -1.114757         0.517781         2.411697
 O        -3.589252         1.669297         2.085581
 C        -4.313668         1.552762         0.867852
 C        -3.591690         0.646098        -0.161409
 C        -2.444657         0.141898         0.732384
 H         0.874463         0.068508         0.530273
 H        -0.406860         2.459189         0.852978
 H        -1.879598         2.263294        -0.159404
 H        -0.487931         1.219316         2.976644
 H        -1.339821        -0.294836         3.208971
 H        -5.434936         1.447653         1.000362
 H        -4.310880         2.568255         0.346397
 H        -4.145842        -0.154261        -0.587907
 H        -3.233661         1.196302        -1.017610
 H        -2.794367        -0.794597         1.089338
