19
Iteration:  1943
 O        -0.004146        -0.257986         0.094487
 C        -0.941304         0.484522         0.740199
 C        -1.322815         1.971260         0.801649
 C        -2.269324         1.210715         1.725615
 C        -1.095579         0.504216         2.371866
 O        -3.526632         1.708153         2.096302
 C        -4.230416         1.665955         0.730041
 C        -3.669505         0.479363        -0.167222
 C        -2.447981         0.097551         0.686883
 H         0.829424         0.285810         0.230991
 H        -0.522419         2.668189         1.311081
 H        -1.564069         2.400937        -0.235064
 H        -0.195208         1.157609         2.706818
 H        -1.134612        -0.433147         2.792970
 H        -5.264078         1.495520         0.987983
 H        -4.274415         2.631435         0.353331
 H        -4.325338        -0.464379        -0.153722
 H        -3.511128         0.743416        -1.218448
 H        -2.495524        -0.860851         1.139810
