19
Iteration:   842charge 0 multiplicity 1
 O         0.021348        -0.087395         0.061842
 C        -0.936551         0.435640         0.794122
 C        -1.371231         1.886789         0.739200
 C        -2.322333         1.160530         1.778165
 C        -1.065084         0.447174         2.380514
 O        -3.561838         1.747782         2.045253
 C        -4.190506         1.707033         0.726010
 C        -3.594816         0.486700        -0.113566
 C        -2.429281         0.042116         0.696077
 H         0.898682         0.290195         0.263713
 H        -0.646129         2.588860         1.126524
 H        -1.804467         2.109172        -0.340336
 H        -0.284332         0.959541         2.929836
 H        -1.490567        -0.441860         2.874189
 H        -5.287049         1.592315         0.839893
 H        -3.984831         2.759427         0.412669
 H        -4.316065        -0.351129        -0.002758
 H        -3.523012         0.708921        -1.221301
 H        -2.665260        -0.977394         1.033300
