19
Iteration:   323charge 0 multiplicity 1
 O         0.134183        -0.178583         0.143316
 C        -0.959496         0.374814         0.800516
 C        -1.223115         1.903881         0.795289
 C        -2.327630         1.215838         1.664787
 C        -1.197034         0.436437         2.329272
 O        -3.523184         1.904400         2.047469
 C        -4.382336         1.391370         0.861948
 C        -3.494775         0.736532        -0.179760
 C        -2.482992         0.051277         0.724015
 H        -0.067325         0.011221        -0.859640
 H        -0.503646         2.353751         1.390802
 H        -1.410494         2.445921        -0.200999
 H        -0.478717         1.045208         2.866881
 H        -1.508116        -0.598683         2.700888
 H        -5.111791         0.610205         1.149809
 H        -4.887888         2.284274         0.344859
 H        -4.028826         0.129358        -1.050481
 H        -2.970450         1.625772        -0.638890
 H        -2.662734        -1.042249         0.937150
