19
Iteration:    67charge 0 multiplicity 1
 O        -0.002549        -0.374693         0.216777
 C        -0.878665         0.564334         0.695395
 C        -1.047094         2.036588         0.902027
 C        -2.245924         1.257932         1.664782
 C        -1.293950         0.325935         2.384039
 O        -3.507585         1.858218         1.923703
 C        -4.461826         1.247820         1.024535
 C        -3.634724         0.765033        -0.262235
 C        -2.372687         0.279838         0.465926
 H         0.965942        -0.172927         0.524469
 H        -0.216899         2.517450         1.549337
 H        -1.326277         2.691959         0.170208
 H        -0.706670         0.748959         3.200339
 H        -1.629129        -0.660675         2.342035
 H        -5.025800         0.374424         1.414691
 H        -5.221887         2.004405         0.698024
 H        -4.067410        -0.048167        -0.819781
 H        -3.482249         1.602424        -0.975966
 H        -2.575792        -0.724223         0.784499
