19
Iteration:   809charge 0 multiplicity 1
 O         0.197277        -0.212220         0.119659
 C        -0.925739         0.441445         0.682265
 C        -1.417271         1.883724         0.688912
 C        -2.303960         1.123714         1.724407
 C        -1.089453         0.563385         2.373390
 O        -3.556912         1.676190         2.024775
 C        -4.278921         1.728524         0.837925
 C        -3.596208         0.592359        -0.104238
 C        -2.540464        -0.038656         0.740659
 H         0.901230         0.541008         0.039732
 H        -0.726737         2.558652         1.160340
 H        -1.816399         2.494920        -0.251295
 H        -0.423762         1.208571         2.878952
 H        -1.415489        -0.292539         3.032755
 H        -5.376770         1.601642         0.979955
 H        -4.073439         2.780180         0.509566
 H        -4.315271        -0.138730        -0.493827
 H        -3.120534         1.082535        -1.038567
 H        -2.720416        -1.011757         1.187033
