19
Iteration:  3007
 O         0.162179        -0.209732         0.095057
 C        -0.879312         0.441956         0.818520
 C        -1.165221         1.922865         0.635710
 C        -2.324233         1.206349         1.680202
 C        -1.031650         0.490010         2.388753
 O        -3.563946         1.887564         1.923422
 C        -4.483731         1.430461         0.957389
 C        -3.645485         0.694259        -0.113658
 C        -2.513446         0.102251         0.718321
 H         0.338877        -0.983856         0.634334
 H        -0.366896         2.528423         1.076434
 H        -1.547579         2.140399        -0.369058
 H        -0.200181         0.878506         2.955510
 H        -1.381107        -0.511965         2.743969
 H        -5.371167         0.767175         1.487648
 H        -4.964898         2.268071         0.357806
 H        -4.234946        -0.095253        -0.703679
 H        -3.257390         1.432193        -0.918898
 H        -2.731603        -0.918311         1.048812
