19
Iteration:  1057charge 0 multiplicity 1
 O         0.059031        -0.284259         0.155451
 C        -0.932646         0.443932         0.826904
 C        -1.229125         2.050132         0.778117
 C        -2.293451         1.270395         1.589471
 C        -1.029136         0.452474         2.341467
 O        -3.456046         1.770337         1.995795
 C        -4.465109         1.502732         0.849783
 C        -3.675100         0.585419        -0.196237
 C        -2.463676         0.094153         0.709359
 H         0.959690         0.177748         0.267775
 H        -0.526010         2.629924         1.292337
 H        -1.469580         2.314913        -0.288747
 H        -0.354090         0.914967         2.927461
 H        -1.357161        -0.479178         2.868213
 H        -5.277001         0.934900         1.269731
 H        -4.802913         2.457879         0.456795
 H        -4.219104        -0.223554        -0.596059
 H        -3.490162         1.281019        -1.080214
 H        -2.717803        -0.783207         1.308952
