19
Iteration:  2670charge 0 multiplicity 1
 O         0.099361        -0.263888         0.161864
 C        -1.002410         0.341335         0.826638
 C        -1.242118         1.947710         0.784366
 C        -2.275513         1.234616         1.657330
 C        -1.022402         0.517079         2.356191
 O        -3.491863         1.882991         1.976310
 C        -4.387080         1.450329         0.878674
 C        -3.622083         0.664967        -0.211083
 C        -2.517364         0.063133         0.687720
 H         0.345888         0.281397        -0.549798
 H        -0.450132         2.644241         1.217254
 H        -1.742630         2.425811        -0.129751
 H        -0.319359         1.024395         2.861093
 H        -1.051398        -0.532838         2.793777
 H        -5.154309         0.745157         1.376160
 H        -4.931672         2.298390         0.391362
 H        -4.247167        -0.144104        -0.693548
 H        -3.277793         1.380275        -0.924425
 H        -2.726855        -0.863120         1.326764
