19
Iteration:  4110charge 0 multiplicity 1
 O         0.162619        -0.185665         0.095650
 C        -0.901653         0.430934         0.777146
 C        -1.269572         1.888145         0.587529
 C        -2.328774         1.242389         1.684151
 C        -1.042049         0.612865         2.329099
 O        -3.572039         1.826545         2.058729
 C        -4.387206         1.566944         0.802377
 C        -3.707333         0.453403        -0.022438
 C        -2.428633         0.050087         0.765652
 H         0.596292        -0.721444         0.744623
 H        -0.471995         2.635554         0.673046
 H        -1.730981         2.220748        -0.354292
 H        -0.241587         1.256098         2.757632
 H        -1.318669        -0.370575         2.855914
 H        -5.336015         1.347853         1.186262
 H        -4.419890         2.529483         0.276168
 H        -4.366249        -0.244164        -0.290755
 H        -3.459203         0.838909        -0.999260
 H        -2.583288        -0.883561         1.233433
