19
Iteration:   453charge 0 multiplicity 1
 O         0.083637        -0.197548         0.086624
 C        -0.911071         0.418793         0.827720
 C        -1.155621         1.982819         0.841618
 C        -2.264968         1.341696         1.656717
 C        -1.170436         0.461394         2.409155
 O        -3.509927         1.714160         1.953312
 C        -4.402403         1.466665         0.878249
 C        -3.567471         0.573797        -0.218051
 C        -2.441995         0.157775         0.689172
 H        -0.324185        -0.546585        -0.702641
 H        -0.446884         2.588621         1.416268
 H        -1.551777         2.452063        -0.164420
 H        -0.434480         0.988423         3.037438
 H        -1.669393        -0.401777         2.968713
 H        -5.239790         0.852185         1.262798
 H        -4.903351         2.439996         0.510562
 H        -4.249217        -0.238786        -0.619837
 H        -3.326396         1.271181        -1.027620
 H        -2.720684        -0.708676         1.298853
