19
Iteration:  1952
 O         0.023084        -0.281752         0.065716
 C        -0.972552         0.472955         0.768440
 C        -1.288106         2.041149         0.766336
 C        -2.302047         1.192932         1.715313
 C        -1.056968         0.508172         2.306546
 O        -3.552626         1.684273         2.068014
 C        -4.289650         1.624000         0.719586
 C        -3.618464         0.536358        -0.075555
 C        -2.441379         0.105482         0.722664
 H         0.924169         0.147433         0.192007
 H        -0.453200         2.510919         1.426263
 H        -1.603808         2.453063        -0.243288
 H        -0.392297         1.140881         2.943342
 H        -1.358716        -0.314028         2.867687
 H        -5.268888         1.490857         1.059729
 H        -4.045614         2.522199         0.230429
 H        -4.243560        -0.461046        -0.113024
 H        -3.390104         0.957641        -1.071859
 H        -2.737417        -0.871011         1.121482
