19
Iteration:  1977
 O         0.047953        -0.267962        -0.008161
 C        -0.934307         0.459705         0.782266
 C        -1.295619         1.921933         0.696456
 C        -2.249472         1.223700         1.714423
 C        -1.109329         0.546283         2.437444
 O        -3.613611         1.699253         2.124861
 C        -4.354982         1.662857         0.785923
 C        -3.568577         0.571479        -0.194094
 C        -2.432783         0.099121         0.760030
 H         1.017285        -0.025526         0.274856
 H        -0.472922         2.561206         1.141981
 H        -1.604099         2.093125        -0.395734
 H        -0.225079         1.153872         2.916047
 H        -1.340707        -0.379891         2.988305
 H        -5.204071         1.119026         1.179473
 H        -4.406764         2.626808         0.334341
 H        -4.145605        -0.316341        -0.539720
 H        -3.150591         1.064752        -1.092816
 H        -2.750740        -0.824812         1.171915
