19
Iteration:  3002charge 0 multiplicity 1
 O         0.163635        -0.232014         0.068968
 C        -0.883483         0.456785         0.829163
 C        -1.203936         1.915816         0.628792
 C        -2.288284         1.207213         1.732316
 C        -1.057986         0.485037         2.360138
 O        -3.574547         1.876390         1.935327
 C        -4.506280         1.442436         0.949390
 C        -3.588837         0.668979        -0.165418
 C        -2.504652         0.098067         0.737738
 H         0.363339        -1.040044         0.646532
 H        -0.457441         2.576872         1.090806
 H        -1.587310         2.151789        -0.374153
 H        -0.314653         1.133212         2.929098
 H        -1.264468        -0.485554         2.784614
 H        -5.279809         1.012781         1.434893
 H        -5.029247         2.323289         0.564936
 H        -4.235401         0.059022        -0.762900
 H        -3.123645         1.380855        -0.777698
 H        -2.757738        -0.911123         1.158216
