19
Iteration:  4940charge 0 multiplicity 1
 O         0.111349        -0.296181         0.199046
 C        -0.944160         0.430652         0.768588
 C        -1.242659         1.943019         0.580186
 C        -2.263031         1.309223         1.646091
 C        -1.046020         0.480571         2.340389
 O        -3.494334         1.890728         1.994983
 C        -4.433751         1.488763         0.956916
 C        -3.702800         0.486354        -0.078582
 C        -2.446508         0.081260         0.669507
 H         0.812612         0.288260        -0.060045
 H        -0.504209         2.750354         0.846115
 H        -1.719755         2.236194        -0.394694
 H        -0.265072         1.086770         2.927520
 H        -1.355253        -0.472623         2.842350
 H        -5.262843         1.115428         1.474519
 H        -4.727125         2.301193         0.365094
 H        -4.405381        -0.211321        -0.458071
 H        -3.483943         1.283390        -0.903289
 H        -2.676871        -0.736291         1.295548
