19
Iteration:  1527charge 0 multiplicity 1
 O         0.037615        -0.201999         0.040968
 C        -0.895632         0.494608         0.801504
 C        -1.269903         1.971462         0.723640
 C        -2.357163         1.184879         1.677597
 C        -1.103430         0.508914         2.363105
 O        -3.509900         1.755726         2.068907
 C        -4.329764         1.617274         0.790412
 C        -3.642016         0.543511        -0.175564
 C        -2.402390        -0.026589         0.757205
 H         0.966776         0.065161         0.306877
 H        -0.632708         2.569924         1.442281
 H        -1.450282         2.432713        -0.211635
 H        -0.404751         1.020927         3.099487
 H        -1.298973        -0.457889         2.936514
 H        -5.425706         1.480297         1.069903
 H        -4.417451         2.672650         0.389581
 H        -4.455451        -0.176476        -0.357287
 H        -3.335074         0.841542        -1.135612
 H        -2.653687        -1.043927         1.077704
