19
Iteration:  4943
 O         0.118730        -0.302983         0.196034
 C        -0.916731         0.448281         0.768343
 C        -1.241939         1.927634         0.580107
 C        -2.267986         1.296406         1.613754
 C        -1.051033         0.481296         2.362127
 O        -3.507091         1.889689         2.006635
 C        -4.439931         1.483724         0.957240
 C        -3.699659         0.522724        -0.100452
 C        -2.452105         0.067643         0.698104
 H         0.824024         0.339437        -0.155911
 H        -0.532556         2.694771         0.789731
 H        -1.667468         2.246936        -0.398912
 H        -0.234855         1.022047         2.834810
 H        -1.278618        -0.426528         2.885179
 H        -5.352457         1.105605         1.530691
 H        -4.812154         2.406678         0.338965
 H        -4.343227        -0.257699        -0.446705
 H        -3.508534         1.268335        -0.901354
 H        -2.710396        -0.727506         1.367523
