19
Iteration:  2845charge 0 multiplicity 1
 O        -0.009382        -0.223137         0.073651
 C        -0.947620         0.473593         0.805044
 C        -1.277906         1.966984         0.678579
 C        -2.313873         1.219352         1.662713
 C        -1.002901         0.535794         2.328054
 O        -3.554184         1.693060         2.099933
 C        -4.338115         1.692895         0.812675
 C        -3.545101         0.535068        -0.150728
 C        -2.450297         0.032090         0.734324
 H         0.672321        -0.490268         0.687852
 H        -0.649021         2.635582         1.177601
 H        -1.863694         2.236106        -0.157181
 H        -0.524902         1.343057         2.896175
 H        -1.269764        -0.536691         2.744912
 H        -5.398521         1.380406         1.070696
 H        -4.244842         2.680015         0.343037
 H        -4.097668        -0.403859        -0.359027
 H        -3.239613         0.943593        -1.150901
 H        -2.526036        -0.979776         1.154562
