19
Iteration:  3406charge 0 multiplicity 1
 O         0.037405        -0.181658         0.103459
 C        -0.949990         0.470588         0.805783
 C        -1.175312         1.967380         0.649337
 C        -2.364179         1.132125         1.775508
 C        -1.010395         0.563386         2.441451
 O        -3.551167         1.758553         2.055095
 C        -4.369323         1.609410         0.795333
 C        -3.599588         0.533688        -0.227496
 C        -2.469821         0.059327         0.708342
 H         0.010575        -1.191277         0.048597
 H        -0.445945         2.610109         1.070065
 H        -1.486056         2.419073        -0.288790
 H        -0.430752         1.331628         2.875178
 H        -0.891429        -0.362485         3.039512
 H        -5.343355         1.268150         1.191187
 H        -4.439566         2.569775         0.249836
 H        -4.289797        -0.280871        -0.696754
 H        -3.264838         1.111694        -1.060897
 H        -2.602876        -0.937256         1.293738
