19
Iteration:  1985charge 0 multiplicity 1
 O         0.032748        -0.233593         0.006557
 C        -0.954365         0.391036         0.808092
 C        -1.290785         1.879646         0.668407
 C        -2.335089         1.213677         1.769321
 C        -1.059904         0.549614         2.438966
 O        -3.524901         1.719987         2.126664
 C        -4.356015         1.580527         0.794379
 C        -3.513819         0.642105        -0.211346
 C        -2.460872         0.108941         0.710540
 H         0.978373        -0.007255         0.303189
 H        -0.539199         2.675273         0.997510
 H        -1.650290         2.221439        -0.337218
 H        -0.411895         1.270133         2.974115
 H        -1.410156        -0.194967         3.037733
 H        -5.326227         1.196877         1.047126
 H        -4.501853         2.504243         0.299650
 H        -4.175909        -0.263863        -0.493476
 H        -3.309103         1.069545        -1.195618
 H        -2.796609        -0.849528         1.132095
