19
Iteration:  1604
 O         0.079915        -0.183104         0.101099
 C        -0.981339         0.342301         0.762995
 C        -1.430492         1.883557         0.664441
 C        -2.264558         1.212888         1.711909
 C        -1.049229         0.576579         2.423495
 O        -3.535728         1.645704         2.147839
 C        -4.228961         1.708524         0.754933
 C        -3.562882         0.608783        -0.173860
 C        -2.464367        -0.001585         0.686617
 H         0.854456         0.471000         0.099399
 H        -0.674058         2.597648         1.052649
 H        -1.920929         2.315712        -0.145996
 H        -0.357072         1.395912         2.864073
 H        -1.430644        -0.303288         2.984428
 H        -5.252293         1.292594         0.954185
 H        -4.108063         2.757441         0.302253
 H        -4.333523        -0.176362        -0.327268
 H        -3.385254         0.959080        -1.146689
 H        -2.981507        -0.899080         1.052801
