19
Iteration:  4424
 O         0.131236        -0.179477         0.065034
 C        -0.957393         0.435941         0.836115
 C        -1.278893         1.969517         0.706930
 C        -2.258365         1.278521         1.647665
 C        -1.057271         0.578704         2.314355
 O        -3.534574         1.763001         1.987244
 C        -4.307865         1.581726         0.808971
 C        -3.761358         0.416964        -0.039290
 C        -2.443253         0.080429         0.748189
 H         0.537376        -0.977931         0.469084
 H        -0.741896         2.708319         1.218660
 H        -1.471938         2.280261        -0.285879
 H        -0.330332         1.155859         2.831122
 H        -1.347584        -0.277827         2.846284
 H        -5.290827         1.559839         1.173997
 H        -4.245734         2.358923         0.067087
 H        -4.423825        -0.465567        -0.023353
 H        -3.620925         0.894785        -1.122700
 H        -2.502236        -0.873616         1.344474
