19
Iteration:   603
 O         0.051411        -0.186188        -0.069587
 C        -0.882289         0.395762         0.837169
 C        -1.284296         1.863356         0.839479
 C        -2.328065         1.188590         1.766350
 C        -1.136497         0.468999         2.426151
 O        -3.519346         1.818238         1.973201
 C        -4.378577         1.536732         0.816221
 C        -3.556362         0.579762        -0.205602
 C        -2.423133         0.128927         0.752947
 H         0.769793         0.462611        -0.031974
 H        -0.769501         2.606665         1.391158
 H        -1.617292         2.477407        -0.099925
 H        -0.376408         1.107287         2.936784
 H        -1.266958        -0.477511         3.084182
 H        -5.367512         1.194140         1.128198
 H        -4.559101         2.502512         0.311094
 H        -4.101649        -0.348700        -0.423020
 H        -3.239220         1.007340        -1.239804
 H        -2.780539        -0.797954         1.322126
