19
Iteration:  1793
 O         0.119310        -0.284959         0.044456
 C        -0.900442         0.412065         0.760784
 C        -1.311596         1.940267         0.768157
 C        -2.292757         1.246783         1.681063
 C        -1.165326         0.501142         2.349312
 O        -3.499881         1.914358         2.001849
 C        -4.428077         1.376005         0.895271
 C        -3.580609         0.654553        -0.126059
 C        -2.459392         0.099092         0.679823
 H         0.957764        -0.217053         0.590637
 H        -0.432999         2.493683         0.920117
 H        -1.829072         2.322051        -0.127225
 H        -0.402071         1.133679         2.850385
 H        -1.523800        -0.367432         2.828025
 H        -5.057409         0.684490         1.536535
 H        -4.736099         2.424583         0.580402
 H        -4.161456         0.010740        -0.714647
 H        -3.164014         1.411746        -0.761407
 H        -2.570724        -0.928289         1.084548
