19
Iteration:  2120charge 0 multiplicity 1
 O         0.146106        -0.306935         0.224118
 C        -0.916378         0.410975         0.721179
 C        -1.110971         2.010693         0.744842
 C        -2.271698         1.265006         1.640948
 C        -1.173034         0.486287         2.312465
 O        -3.554184         1.839119         2.020527
 C        -4.446558         1.380739         0.986360
 C        -3.621435         0.721373        -0.201965
 C        -2.481368         0.118552         0.650759
 H        -0.110750        -0.473360        -0.717233
 H        -0.423004         2.617403         1.386808
 H        -1.363218         2.610078        -0.179861
 H        -0.360795         1.013241         2.828617
 H        -1.488092        -0.488210         2.828209
 H        -5.138151         0.692884         1.540061
 H        -4.969961         2.229209         0.579188
 H        -4.122806        -0.189904        -0.806338
 H        -3.228278         1.432178        -1.030006
 H        -2.669484        -0.883074         1.041851
