19
Iteration:  4693
 O         0.096568        -0.329025         0.096689
 C        -0.911817         0.421328         0.756105
 C        -1.283363         1.944921         0.625689
 C        -2.256484         1.284013         1.708508
 C        -1.064165         0.619043         2.350925
 O        -3.556101         1.822143         1.983023
 C        -4.420481         1.559026         0.824388
 C        -3.662760         0.511902        -0.049647
 C        -2.440091         0.038367         0.817002
 H         0.946097         0.115701        -0.124132
 H        -0.565761         2.631190         1.048951
 H        -1.643893         2.277631        -0.356367
 H        -0.230049         1.217984         2.768826
 H        -1.214627        -0.249231         2.978375
 H        -5.275269         1.217532         1.372641
 H        -4.639081         2.445113         0.372130
 H        -4.213485        -0.412176        -0.442901
 H        -3.416725         1.072687        -0.962365
 H        -2.593837        -0.956846         1.308566
