19
Iteration:  4945charge 0 multiplicity 1
 O         0.126758        -0.304824         0.191036
 C        -0.895510         0.454265         0.767023
 C        -1.245222         1.915888         0.578371
 C        -2.270355         1.290475         1.597432
 C        -1.057637         0.490688         2.369455
 O        -3.512835         1.887098         2.012400
 C        -4.448162         1.482855         0.956410
 C        -3.694209         0.555522        -0.112187
 C        -2.458236         0.064976         0.718317
 H         0.778579         0.329429        -0.193803
 H        -0.517822         2.674116         0.801429
 H        -1.635753         2.225009        -0.383724
 H        -0.221095         0.994911         2.776014
 H        -1.244088        -0.422117         2.913982
 H        -5.384576         1.090165         1.536160
 H        -4.845746         2.437420         0.368234
 H        -4.328111        -0.330755        -0.459121
 H        -3.512866         1.210630        -0.903013
 H        -2.741637        -0.787623         1.428168
