19
Iteration:  2806
 O         0.053763        -0.308286         0.081300
 C        -0.906324         0.406726         0.763876
 C        -1.233203         1.938089         0.728933
 C        -2.293528         1.255059         1.657889
 C        -1.131716         0.527519         2.373731
 O        -3.530323         1.794040         2.031464
 C        -4.486223         1.512596         0.885885
 C        -3.542289         0.610852        -0.184517
 C        -2.423381         0.093894         0.750795
 H         0.763587         0.396145        -0.093672
 H        -0.395662         2.580101         1.268784
 H        -1.381869         2.405743        -0.284367
 H        -0.380981         1.187004         2.908191
 H        -1.245194        -0.398219         2.881039
 H        -5.265530         0.987815         1.396260
 H        -4.754793         2.526501         0.440251
 H        -4.222784        -0.138835        -0.550184
 H        -3.172260         1.215919        -1.019731
 H        -2.788958        -0.882151         1.164305
