19
Iteration:  2957charge 0 multiplicity 1
 O         0.023235        -0.172493         0.087894
 C        -0.936443         0.456653         0.764912
 C        -1.182427         1.941951         0.660658
 C        -2.266588         1.279450         1.661053
 C        -1.108482         0.549086         2.424084
 O        -3.554450         1.700300         2.075277
 C        -4.374688         1.563749         0.831781
 C        -3.607388         0.551329        -0.176729
 C        -2.388442         0.085597         0.739528
 H        -0.217648        -1.160750         0.245546
 H        -0.389993         2.617345         1.063788
 H        -1.739137         2.076620        -0.236884
 H        -0.345019         1.250347         2.991579
 H        -1.215911        -0.446221         2.848516
 H        -5.360578         1.316147         1.101051
 H        -4.638902         2.527926         0.401287
 H        -4.104755        -0.276993        -0.581710
 H        -3.182244         1.146685        -1.008849
 H        -2.596383        -0.828574         1.336122
