19
Iteration:   575
 O         0.010540        -0.189073         0.104172
 C        -0.948169         0.457452         0.742719
 C        -1.228817         2.027942         0.758384
 C        -2.266167         1.234695         1.819282
 C        -1.061193         0.381400         2.343250
 O        -3.651382         1.782825         2.053404
 C        -4.321884         1.616529         0.775968
 C        -3.569037         0.431485        -0.177099
 C        -2.421528         0.041420         0.707777
 H         0.490060         0.513973        -0.236138
 H        -0.400083         2.636707         1.330772
 H        -1.670660         2.763632         0.086829
 H        -0.152495         0.912998         2.792580
 H        -1.310231        -0.579477         2.633931
 H        -5.433066         1.569530         0.895385
 H        -3.967202         2.499404         0.176860
 H        -4.298582        -0.401991        -0.447218
 H        -3.256610         0.903208        -1.070006
 H        -2.619527        -0.819420         1.311759
