19
Iteration:  1440charge 0 multiplicity 1
 O         0.061218        -0.244829         0.041195
 C        -0.849059         0.397294         0.850394
 C        -1.189186         1.968695         0.734295
 C        -2.300285         1.279098         1.652315
 C        -1.146980         0.444769         2.357399
 O        -3.526940         1.820077         2.041577
 C        -4.417786         1.473506         0.834672
 C        -3.598286         0.573477        -0.200563
 C        -2.479018         0.142877         0.746397
 H         0.960660         0.069499         0.029648
 H        -0.480840         2.787673         1.163848
 H        -1.460464         2.411682        -0.190208
 H        -0.592591         1.151090         3.008144
 H        -1.491067        -0.479144         2.983725
 H        -5.186618         0.823587         1.284148
 H        -4.851453         2.439822         0.590087
 H        -4.365518        -0.149062        -0.491461
 H        -3.305339         0.991962        -1.142430
 H        -2.672981        -0.812887         1.371501
