19
Iteration:  1332
 O         0.118742        -0.288395         0.143396
 C        -0.879419         0.393969         0.794245
 C        -1.198555         1.947991         0.682481
 C        -2.321706         1.237739         1.644079
 C        -1.155269         0.569360         2.400288
 O        -3.521787         1.845916         2.065273
 C        -4.505606         1.402414         1.005452
 C        -3.623244         0.717923        -0.223288
 C        -2.392932         0.061435         0.541497
 H         1.022416        -0.014910         0.514593
 H        -0.338904         2.674357         1.019955
 H        -1.604036         2.211891        -0.272131
 H        -0.298459         0.963499         2.885192
 H        -1.388321        -0.341307         2.869933
 H        -5.261202         0.681981         1.337362
 H        -4.854122         2.296503         0.575059
 H        -4.297630        -0.140878        -0.669614
 H        -3.432302         1.501711        -0.963296
 H        -2.843045        -0.926315         0.862497
