19
Iteration:  3712
 O         0.084633        -0.262370         0.186162
 C        -0.956088         0.458696         0.723621
 C        -1.329804         1.992708         0.668103
 C        -2.302350         1.249661         1.721729
 C        -0.905324         0.584801         2.371306
 O        -3.612910         1.731610         2.080825
 C        -4.307164         1.660287         0.703904
 C        -3.617518         0.444291        -0.122930
 C        -2.476776         0.025607         0.838791
 H        -0.009972        -0.148909        -0.729164
 H        -0.485846         2.566091         1.171133
 H        -1.784540         2.538556        -0.201178
 H        -0.187860         1.288511         2.789562
 H        -1.138414        -0.426469         2.648104
 H        -5.376607         1.472275         0.844319
 H        -4.088573         2.538231         0.056759
 H        -4.325025        -0.397505        -0.302548
 H        -3.454817         0.758996        -1.124835
 H        -2.621330        -0.897419         1.369467
