19
Iteration:  1537charge 0 multiplicity 1
 O         0.017110        -0.210721         0.052004
 C        -0.861020         0.490131         0.827525
 C        -1.307556         2.002328         0.788019
 C        -2.287673         1.188169         1.673915
 C        -1.037925         0.431018         2.391739
 O        -3.512694         1.782215         2.037459
 C        -4.299723         1.612363         0.776886
 C        -3.717803         0.472185        -0.172300
 C        -2.489447         0.053594         0.729574
 H         0.899223         0.174757         0.172540
 H        -0.562004         2.659332         1.315711
 H        -1.643440         2.570774        -0.023541
 H        -0.529235         1.244010         2.924068
 H        -1.375565        -0.612131         2.732916
 H        -5.405992         1.425364         1.089679
 H        -3.988966         2.491994         0.144458
 H        -4.244439        -0.406846        -0.497117
 H        -3.377163         1.014488        -1.042298
 H        -2.499766        -0.911299         1.202388
