19
Iteration:  4022
 O         0.117584        -0.107942        -0.004748
 C        -0.962101         0.394946         0.749127
 C        -1.341415         1.944297         0.677809
 C        -2.283385         1.310737         1.664917
 C        -1.161384         0.629754         2.499612
 O        -3.462252         1.880335         1.948462
 C        -4.280685         1.539805         0.846683
 C        -3.615281         0.317989        -0.033006
 C        -2.429944        -0.010423         0.794185
 H         0.074597        -1.033536        -0.202805
 H        -0.695550         2.712501         1.124405
 H        -1.681465         2.400256        -0.238092
 H        -0.313431         1.059602         3.052439
 H        -1.645009        -0.283070         2.894300
 H        -5.235163         1.347986         1.130792
 H        -4.415948         2.380686         0.169885
 H        -4.272520        -0.501723        -0.109367
 H        -3.466975         0.710847        -1.046855
 H        -2.600999        -0.870143         1.365457
