19
Iteration:   780
 O         0.067678        -0.296709         0.118042
 C        -0.880247         0.493807         0.832884
 C        -1.175017         1.953157         0.654861
 C        -2.275063         1.274960         1.716297
 C        -1.085406         0.494745         2.390243
 O        -3.575625         1.670652         2.205950
 C        -4.414245         1.530395         0.798665
 C        -3.641620         0.576106        -0.268417
 C        -2.481153         0.186454         0.639385
 H         0.706778         0.340025        -0.247950
 H        -0.421516         2.683897         1.074363
 H        -1.517149         2.274836        -0.331144
 H        -0.359934         1.023925         3.127062
 H        -1.493727        -0.307206         2.949046
 H        -5.446884         1.224147         0.919446
 H        -4.220148         2.565289         0.445020
 H        -4.198889        -0.404158        -0.635428
 H        -3.412472         1.089048        -1.207977
 H        -2.743879        -0.799776         1.199801
