19
Iteration:  1831charge 0 multiplicity 1
 O        -0.019459        -0.236872         0.073675
 C        -0.917298         0.408474         0.794197
 C        -1.154135         1.933641         0.743377
 C        -2.255860         1.302624         1.712525
 C        -1.105353         0.553558         2.312828
 O        -3.524421         1.728295         2.036266
 C        -4.403656         1.478598         0.864323
 C        -3.618012         0.625971        -0.175935
 C        -2.449840         0.097010         0.729256
 H         0.860329        -0.027863         0.265609
 H        -0.324320         2.682346         1.200608
 H        -1.714841         2.095170        -0.177575
 H        -0.302458         1.134089         2.854398
 H        -1.468259        -0.302490         3.010302
 H        -5.352722         0.978198         1.071789
 H        -4.657089         2.366723         0.259016
 H        -4.172401        -0.278579        -0.624380
 H        -3.239080         1.346331        -0.966031
 H        -2.745691        -0.860942         1.214523
