19
Iteration:   177
 O        -0.042956        -0.216638         0.044093
 C        -0.894151         0.495804         0.849721
 C        -1.217615         2.018938         0.867798
 C        -2.367220         1.237639         1.758777
 C        -1.141612         0.400155         2.391212
 O        -3.682433         1.543952         2.088663
 C        -4.188729         1.715479         0.691978
 C        -3.573811         0.615728        -0.218288
 C        -2.364733         0.080932         0.680203
 H         0.805790         0.097275        -0.069921
 H        -0.464746         2.683648         1.434187
 H        -1.301147         2.435595        -0.028138
 H        -0.275263         0.731374         3.082044
 H        -1.381562        -0.621636         2.502490
 H        -5.281999         1.574934         0.645398
 H        -4.031036         2.808936         0.381627
 H        -4.216682        -0.178441        -0.491318
 H        -3.455538         1.165287        -1.171405
 H        -2.495468        -0.922789         0.974653
