19
Iteration:  4617
 O         0.118178        -0.335523         0.301289
 C        -0.942740         0.417495         0.736435
 C        -1.131267         1.991167         0.686396
 C        -2.276574         1.396341         1.571704
 C        -1.034981         0.600421         2.251742
 O        -3.505757         1.863774         1.999603
 C        -4.457739         1.345126         0.958158
 C        -3.724848         0.529854        -0.139810
 C        -2.492380         0.134465         0.674436
 H         0.026954        -0.568140        -0.681329
 H        -0.374583         2.569569         1.230079
 H        -1.446307         2.466975        -0.269131
 H        -0.235853         1.254446         2.726019
 H        -1.219085        -0.350428         2.777662
 H        -5.157838         0.679216         1.542878
 H        -4.927192         2.278800         0.672569
 H        -4.469784        -0.280523        -0.503542
 H        -3.281048         1.049430        -0.872934
 H        -2.649409        -0.729610         1.332829
