19
Iteration:   163charge 0 multiplicity 1
 O        -0.024556        -0.331282         0.038710
 C        -0.866464         0.507956         0.823278
 C        -1.171266         2.038682         0.924746
 C        -2.338206         1.183146         1.720360
 C        -1.101053         0.373188         2.371891
 O        -3.710231         1.562278         2.069230
 C        -4.307652         1.651481         0.711520
 C        -3.492140         0.672074        -0.211119
 C        -2.408322         0.214679         0.657650
 H         0.721085         0.308816        -0.315475
 H        -0.592689         2.667674         1.645065
 H        -1.526525         2.565995        -0.041528
 H        -0.558893         1.130734         2.930856
 H        -1.389365        -0.595170         2.859871
 H        -5.408577         1.532305         0.888091
 H        -4.110696         2.659462         0.368273
 H        -4.113994        -0.167787        -0.423359
 H        -3.135084         1.033047        -1.119245
 H        -2.581672        -0.743944         1.135928
