19
Iteration:  2847
 O        -0.004225        -0.212483         0.067780
 C        -0.930579         0.475287         0.822257
 C        -1.267942         1.952547         0.673186
 C        -2.304208         1.206940         1.672728
 C        -1.002952         0.540011         2.319288
 O        -3.579220         1.695095         2.090591
 C        -4.328575         1.691949         0.813536
 C        -3.560141         0.523827        -0.131072
 C        -2.455667         0.021735         0.714530
 H         0.603899        -0.486277         0.707898
 H        -0.580850         2.673838         1.223935
 H        -1.886399         2.263663        -0.168662
 H        -0.521854         1.385027         2.861056
 H        -1.257789        -0.413464         2.716263
 H        -5.320803         1.363980         1.052022
 H        -4.144037         2.738513         0.405665
 H        -4.132656        -0.329498        -0.365911
 H        -3.231506         0.955144        -1.116220
 H        -2.661019        -1.026096         1.168839
