19
Iteration:  2746charge 0 multiplicity 1
 O         0.140597        -0.314090         0.301968
 C        -0.881013         0.486121         0.750756
 C        -1.193558         2.009316         0.702619
 C        -2.255788         1.269340         1.660905
 C        -1.144479         0.413108         2.299637
 O        -3.491656         1.923352         1.950055
 C        -4.433298         1.301482         1.020668
 C        -3.651203         0.722741        -0.178876
 C        -2.493127         0.130734         0.588045
 H         0.059287        -0.612768        -0.655038
 H        -0.400096         2.585715         1.182920
 H        -1.514874         2.464616        -0.251599
 H        -0.488889         0.994172         2.861253
 H        -1.217805        -0.647562         2.756417
 H        -5.121624         0.548707         1.476467
 H        -5.201058         1.921108         0.689872
 H        -4.441471         0.136684        -0.731831
 H        -3.479797         1.567297        -0.843763
 H        -2.603640        -0.896709         0.998596
