19
Iteration:  3496charge 0 multiplicity 1
 O         0.199977        -0.217098         0.117434
 C        -0.854421         0.422469         0.753101
 C        -1.302940         1.842198         0.662868
 C        -2.324922         1.244158         1.705513
 C        -1.126141         0.524196         2.354115
 O        -3.574354         1.799446         2.032652
 C        -4.329746         1.658794         0.822214
 C        -3.675255         0.471783        -0.130273
 C        -2.496076         0.038973         0.807949
 H         0.793259         0.304933        -0.547944
 H        -0.628408         2.621502         0.987464
 H        -1.585457         2.198434        -0.286003
 H        -0.388909         1.056168         3.051609
 H        -1.410060        -0.453805         2.830305
 H        -5.394749         1.499247         1.159759
 H        -4.253136         2.693534         0.367527
 H        -4.430345        -0.197885        -0.546023
 H        -3.241069         1.133507        -0.971533
 H        -2.821307        -0.814840         1.486477
