19
Iteration:  4440charge 0 multiplicity 1
 O         0.052865        -0.202948         0.087325
 C        -0.939152         0.461313         0.746833
 C        -1.289376         1.919551         0.665732
 C        -2.314228         1.240927         1.704281
 C        -1.034510         0.624765         2.368868
 O        -3.513638         1.822296         2.073953
 C        -4.331239         1.584553         0.798551
 C        -3.627233         0.437412        -0.136737
 C        -2.445918         0.025013         0.708514
 H         0.472876        -0.782518         0.819641
 H        -0.415267         2.554126         1.088741
 H        -1.851801         2.329559        -0.233544
 H        -0.309799         1.424612         2.677837
 H        -1.067806        -0.356449         2.985185
 H        -5.379386         1.208010         1.101856
 H        -4.462138         2.654076         0.457100
 H        -4.314734        -0.407363        -0.185727
 H        -3.490482         0.673435        -1.118759
 H        -2.693650        -0.927923         1.184959
