19
Iteration:   610
 O         0.038384        -0.159961        -0.055512
 C        -0.919085         0.359717         0.881628
 C        -1.247585         1.881701         0.780933
 C        -2.265909         1.174296         1.724432
 C        -1.134897         0.511794         2.489216
 O        -3.542699         1.839783         2.019795
 C        -4.361790         1.518833         0.852679
 C        -3.587627         0.594193        -0.261852
 C        -2.425773         0.067606         0.678286
 H         0.787265         0.377128         0.033153
 H        -0.551842         2.535026         1.352862
 H        -1.800481         2.281329         0.016524
 H        -0.466682         1.179962         2.936841
 H        -1.310250        -0.341197         3.122719
 H        -5.331689         1.118316         1.194118
 H        -4.566370         2.465926         0.388972
 H        -4.038792        -0.324315        -0.597669
 H        -3.218889         1.141211        -1.155172
 H        -2.787920        -0.814590         1.164818
