19
Iteration:  3047
 O         0.247009        -0.217954         0.184186
 C        -0.876561         0.451362         0.694910
 C        -1.110518         1.937347         0.697326
 C        -2.271937         1.306449         1.539733
 C        -1.280007         0.463800         2.392990
 O        -3.454293         1.995137         1.936455
 C        -4.434665         1.330377         1.097536
 C        -3.696510         0.574781        -0.189505
 C        -2.520577         0.102235         0.626469
 H         0.092645        -1.193943         0.037680
 H        -0.498571         2.556498         1.368320
 H        -1.463559         2.504160        -0.233611
 H        -0.573793         0.964585         3.124299
 H        -1.717960        -0.448740         2.802512
 H        -5.079836         0.633700         1.658003
 H        -5.162335         2.147745         0.901976
 H        -4.290142        -0.255640        -0.604836
 H        -3.603098         1.338173        -0.841792
 H        -2.747364        -0.866823         1.169076
