19
Iteration:  2460charge 0 multiplicity 1
 O         0.146147        -0.318049         0.172196
 C        -0.864976         0.400569         0.846947
 C        -1.201580         1.970785         0.653987
 C        -2.245969         1.256956         1.695407
 C        -1.102673         0.525851         2.366541
 O        -3.567889         1.749773         2.056108
 C        -4.488272         1.461590         0.951382
 C        -3.650575         0.723537        -0.253735
 C        -2.432195         0.154248         0.666551
 H        -0.040594        -0.258504        -0.767364
 H        -0.257923         2.395026         1.021429
 H        -1.559526         2.193944        -0.386929
 H        -0.389234         1.185337         2.819455
 H        -1.239257        -0.270073         2.987354
 H        -5.356462         0.757412         1.193224
 H        -4.811991         2.430343         0.641260
 H        -4.164391        -0.112020        -0.682231
 H        -3.308766         1.419798        -0.920786
 H        -2.948970        -0.776720         0.961466
