19
Iteration:   584charge 0 multiplicity 1
 O         0.044131        -0.200541         0.028023
 C        -0.966917         0.500555         0.782578
 C        -1.226446         2.028872         0.834125
 C        -2.248444         1.247339         1.744651
 C        -1.064005         0.367974         2.331928
 O        -3.659026         1.815214         2.015405
 C        -4.297325         1.586550         0.715145
 C        -3.609832         0.510368        -0.070805
 C        -2.425165        -0.007365         0.760123
 H         0.679048         0.389564        -0.302073
 H        -0.350938         2.599267         1.303593
 H        -1.809619         2.655176         0.026057
 H        -0.297145         0.752956         3.109549
 H        -1.342957        -0.621565         2.710506
 H        -5.350633         1.272207         0.930453
 H        -4.449005         2.554679         0.116249
 H        -4.215789        -0.345058        -0.469583
 H        -3.096457         0.872062        -0.925936
 H        -2.542476        -0.979600         1.269009
