19
Iteration:  2043
 O         0.097862        -0.307926         0.157257
 C        -0.880441         0.440690         0.786886
 C        -1.144332         1.929509         0.782889
 C        -2.280728         1.347110         1.688435
 C        -1.124374         0.432513         2.349171
 O        -3.548260         1.804384         1.965420
 C        -4.435611         1.404101         0.934301
 C        -3.674644         0.625005        -0.197345
 C        -2.467209         0.229129         0.580258
 H         0.674227         0.283237        -0.260431
 H        -0.271341         2.520899         1.191373
 H        -1.340431         2.183606        -0.322028
 H        -0.318593         0.827462         3.021638
 H        -1.482886        -0.399201         2.958182
 H        -5.010945         0.737651         1.604751
 H        -4.990475         2.257271         0.567884
 H        -4.387289        -0.219325        -0.385126
 H        -3.440452         1.404015        -0.940678
 H        -2.802656        -0.640039         1.137571
