19
Iteration:  4811
 O         0.168174        -0.251142         0.216032
 C        -0.909690         0.412520         0.723481
 C        -1.195067         1.919830         0.573443
 C        -2.249936         1.342142         1.646885
 C        -1.053419         0.568230         2.286910
 O        -3.545073         1.808930         2.111811
 C        -4.396919         1.548220         0.800692
 C        -3.812836         0.419041         0.002188
 C        -2.489594         0.092376         0.738162
 H         0.586803         0.154598        -0.629775
 H        -0.476371         2.521285         1.121627
 H        -1.465859         2.282413        -0.416918
 H        -0.347113         1.183317         2.798885
 H        -1.159125        -0.256211         2.911725
 H        -5.463822         1.313286         1.073321
 H        -4.411834         2.579892         0.144961
 H        -4.294615        -0.460857        -0.216713
 H        -3.529645         0.688417        -1.073104
 H        -2.782858        -0.764558         1.423630
