19
Iteration:  1328charge 0 multiplicity 1
 O         0.110497        -0.276423         0.135533
 C        -0.887239         0.424088         0.798428
 C        -1.212640         1.938386         0.664845
 C        -2.295014         1.211878         1.688110
 C        -1.149020         0.558730         2.442870
 O        -3.486990         1.849940         2.037811
 C        -4.501808         1.399624         0.990665
 C        -3.637675         0.682437        -0.247795
 C        -2.415660         0.077244         0.549388
 H         0.929356        -0.028461         0.560493
 H        -0.491597         2.659083         0.947797
 H        -1.667925         2.252532        -0.321323
 H        -0.342115         1.069372         3.007867
 H        -1.376555        -0.562234         2.801824
 H        -5.236485         0.769214         1.436317
 H        -4.868024         2.375876         0.597149
 H        -4.212246        -0.003357        -0.696191
 H        -3.383336         1.510400        -0.917608
 H        -2.802123        -0.931705         0.806395
