19
Iteration:  2838
 O        -0.002655        -0.262983         0.083489
 C        -0.966605         0.474716         0.745047
 C        -1.348698         1.969639         0.699447
 C        -2.318065         1.245135         1.679865
 C        -1.058018         0.503653         2.359344
 O        -3.502862         1.698954         2.107673
 C        -4.353553         1.646789         0.810697
 C        -3.533928         0.546450        -0.197458
 C        -2.412396         0.090541         0.771944
 H         0.766579        -0.440371         0.561818
 H        -0.622508         2.793269         1.134537
 H        -1.725892         2.319656        -0.316548
 H        -0.344813         1.094036         2.998569
 H        -1.156089        -0.402553         2.809448
 H        -5.353112         1.463885         1.088833
 H        -4.486845         2.600467         0.204573
 H        -4.118800        -0.324792        -0.358375
 H        -3.266905         0.958435        -1.180376
 H        -2.379072        -0.966933         1.207410
