19
Iteration:  2194charge 0 multiplicity 1
 O         0.245684        -0.228357         0.113836
 C        -0.916417         0.395696         0.715816
 C        -1.422856         1.918971         0.738098
 C        -2.363010         1.167401         1.712058
 C        -1.109020         0.498805         2.394748
 O        -3.532305         1.730965         2.069284
 C        -4.262331         1.699432         0.816407
 C        -3.596756         0.597256        -0.122805
 C        -2.533708         0.000849         0.725747
 H         0.209788         0.227628        -0.701927
 H        -0.710946         2.661999         1.238215
 H        -1.700363         2.390895        -0.292927
 H        -0.299286         1.234081         2.791264
 H        -1.342757        -0.448125         2.788711
 H        -5.347699         1.529038         1.014850
 H        -4.076412         2.708260         0.407976
 H        -4.374739         0.056564        -0.571996
 H        -3.217651         0.901241        -1.123830
 H        -2.765868        -0.858733         1.402344
