19
Iteration:   159
 O         0.005926        -0.341679         0.037005
 C        -0.893987         0.489479         0.783166
 C        -1.185879         2.024694         0.957632
 C        -2.288987         1.155686         1.750255
 C        -1.110729         0.405977         2.388567
 O        -3.693996         1.575788         2.040703
 C        -4.331168         1.646021         0.735842
 C        -3.487765         0.683258        -0.243379
 C        -2.420257         0.230247         0.682386
 H         0.611868         0.274223        -0.265608
 H        -0.554062         2.651610         1.553972
 H        -1.625676         2.604899         0.014287
 H        -0.569971         1.181166         2.903887
 H        -1.442754        -0.581797         2.838410
 H        -5.387732         1.537461         0.947090
 H        -4.262216         2.691964         0.387266
 H        -4.076697        -0.278493        -0.552161
 H        -3.178316         1.145574        -1.258798
 H        -2.551200        -0.815247         1.171009
