19
Iteration:  3378charge 0 multiplicity 1
 O         0.114052        -0.229700         0.055781
 C        -0.958372         0.325023         0.802369
 C        -1.320102         1.920761         0.711896
 C        -2.291917         1.355624         1.658257
 C        -1.167148         0.496032         2.365909
 O        -3.544628         1.838517         1.977821
 C        -4.365249         1.454264         0.923424
 C        -3.471168         0.659983        -0.166077
 C        -2.453946         0.097489         0.725014
 H         0.584164        -1.013523         0.328695
 H        -0.509352         2.610704         1.078146
 H        -1.717051         2.372984        -0.197554
 H        -0.327269         1.050968         2.902144
 H        -1.493457        -0.372593         2.988183
 H        -5.138687         0.791096         1.380020
 H        -5.058978         2.218822         0.521086
 H        -4.073927        -0.029965        -0.665530
 H        -3.036260         1.424604        -0.865644
 H        -2.669626        -0.702780         1.371217
