19
Iteration:  4157charge 0 multiplicity 1
 O         0.055573        -0.166675         0.061305
 C        -0.920347         0.429186         0.782082
 C        -1.240191         1.848304         0.665323
 C        -2.237288         1.345043         1.715679
 C        -1.146900         0.590753         2.454287
 O        -3.489263         1.977767         1.891687
 C        -4.421565         1.340470         0.916510
 C        -3.576863         0.493973        -0.077535
 C        -2.382769         0.082806         0.762048
 H        -0.282602        -1.121720        -0.115038
 H        -0.627725         2.672668         0.867989
 H        -1.544754         2.125481        -0.348039
 H        -0.431571         1.211367         2.920464
 H        -1.357063        -0.344484         2.907635
 H        -5.285017         0.801773         1.481404
 H        -4.772098         2.230565         0.463213
 H        -4.053905        -0.440630        -0.602487
 H        -3.665083         1.149568        -0.955301
 H        -2.586375        -1.016344         1.145845
