19
Iteration:   631
 O         0.058799        -0.232656         0.073765
 C        -0.982021         0.454901         0.728841
 C        -1.226413         1.882360         0.642911
 C        -2.309070         1.268458         1.733618
 C        -1.213166         0.564509         2.417381
 O        -3.500750         1.730355         2.038041
 C        -4.369880         1.441559         0.883116
 C        -3.526924         0.737247        -0.157035
 C        -2.437158         0.013849         0.678563
 H         0.888999         0.250687         0.407647
 H        -0.516133         2.544931         1.311231
 H        -1.372818         2.279091        -0.308128
 H        -0.442920         1.064487         2.979422
 H        -1.475998        -0.317852         2.956119
 H        -5.193660         0.806393         1.270310
 H        -4.852331         2.360988         0.536726
 H        -4.228028         0.101715        -0.712222
 H        -2.963442         1.303005        -0.859055
 H        -2.665866        -0.919284         1.130281
