19
Iteration:  2764
 O         0.223349        -0.318108         0.182193
 C        -0.936396         0.389711         0.792137
 C        -1.270537         1.905909         0.725327
 C        -2.291037         1.314190         1.645579
 C        -1.196279         0.466122         2.301119
 O        -3.482862         1.927102         1.973485
 C        -4.463109         1.366481         1.012474
 C        -3.591596         0.709537        -0.189958
 C        -2.455945         0.141709         0.648039
 H         0.363521        -0.164032        -0.798010
 H        -0.632882         2.657788         1.242647
 H        -1.598454         2.402522        -0.196813
 H        -0.346793         0.842703         2.972340
 H        -1.575101        -0.450617         2.852942
 H        -4.961940         0.431474         1.429179
 H        -5.184011         2.218394         0.802707
 H        -4.020030        -0.175937        -0.725550
 H        -3.270022         1.466425        -0.926554
 H        -2.820989        -0.696318         1.275797
