19
Iteration:  2242charge 0 multiplicity 1
 O         0.178638        -0.211614         0.147410
 C        -0.895504         0.431908         0.703034
 C        -1.261194         1.968890         0.788835
 C        -2.307753         1.260078         1.700556
 C        -1.098790         0.455981         2.291896
 O        -3.597531         1.656355         2.079822
 C        -4.216115         1.795556         0.730105
 C        -3.723059         0.452695        -0.098849
 C        -2.517593         0.039370         0.775193
 H         0.517093         0.238040        -0.713411
 H        -0.540819         2.597481         1.336124
 H        -1.702409         2.573333         0.012460
 H        -0.473347         1.003407         2.857911
 H        -1.403473        -0.537249         2.714986
 H        -5.278056         1.767338         0.928953
 H        -3.952261         2.725800         0.267132
 H        -4.536655        -0.377375        -0.253085
 H        -3.683230         0.707695        -1.136526
 H        -2.666807        -0.879320         1.302014
