19
Iteration:  3563
 O         0.036282        -0.356535         0.121291
 C        -0.909425         0.438305         0.748762
 C        -1.186459         1.922929         0.699997
 C        -2.260613         1.372603         1.645219
 C        -1.084051         0.543179         2.296366
 O        -3.636423         1.886951         1.933721
 C        -4.482013         1.307329         0.975411
 C        -3.584209         0.728741        -0.139206
 C        -2.361790         0.150714         0.757271
 H         0.553244        -0.730214         0.804081
 H        -0.345468         2.531278         1.014369
 H        -1.447934         2.286603        -0.303437
 H        -0.149925         1.042135         2.794643
 H        -1.333496        -0.404769         2.843741
 H        -5.012466         0.359357         1.291370
 H        -5.349453         1.975816         0.676657
 H        -3.925897        -0.059137        -0.745102
 H        -2.987355         1.557457        -0.707291
 H        -2.648863        -0.806208         1.272443
