19
Iteration:  4045charge 0 multiplicity 1
 O         0.124000        -0.133383         0.094057
 C        -0.873951         0.496207         0.801237
 C        -1.289237         1.879171         0.592808
 C        -2.341481         1.229745         1.727386
 C        -0.987422         0.593900         2.324133
 O        -3.577266         1.739511         2.033757
 C        -4.333382         1.652866         0.749760
 C        -3.706002         0.407425        -0.042514
 C        -2.454839         0.083454         0.838229
 H         0.274612        -1.067958         0.376425
 H        -0.546767         2.652714         0.736937
 H        -1.715346         2.111259        -0.360533
 H        -0.266081         1.273163         2.734976
 H        -1.170065        -0.336038         2.873546
 H        -5.334596         1.454353         0.873990
 H        -4.347020         2.605202         0.223419
 H        -4.353107        -0.508377        -0.002731
 H        -3.543404         0.675008        -1.116642
 H        -2.574088        -0.866582         1.360445
