19
Iteration:  1208charge 0 multiplicity 1
 O         0.122039        -0.186331         0.138463
 C        -0.901466         0.356961         0.805121
 C        -1.336067         1.847746         0.713840
 C        -2.306688         1.237232         1.647726
 C        -0.965179         0.524329         2.341596
 O        -3.628727         1.653903         2.041454
 C        -4.388230         1.717336         0.852655
 C        -3.632240         0.659932        -0.123062
 C        -2.424899         0.001799         0.684256
 H         1.001662         0.264393         0.392746
 H        -0.706872         2.657968         1.072234
 H        -1.725187         2.189494        -0.318828
 H        -0.194654         1.135232         2.584505
 H        -1.324104        -0.314134         2.981693
 H        -5.404467         1.490263         0.966419
 H        -4.407279         2.670029         0.273552
 H        -4.299116        -0.096743        -0.416841
 H        -3.258666         1.064884        -1.110487
 H        -2.785087        -0.899902         1.268904
