19
Iteration:   523charge 0 multiplicity 1
 O         0.240722        -0.171597         0.195914
 C        -0.915487         0.415884         0.721000
 C        -1.378307         1.810862         0.605706
 C        -2.346346         1.149519         1.731448
 C        -1.144713         0.549828         2.368358
 O        -3.584888         1.648791         2.172097
 C        -4.292293         1.785908         0.878961
 C        -3.624244         0.597883        -0.206420
 C        -2.487899         0.032342         0.640953
 H         0.680920         0.500971        -0.285656
 H        -0.598494         2.543148         0.852671
 H        -1.710560         1.967587        -0.336827
 H        -0.508162         1.264048         2.867812
 H        -1.295727        -0.370717         2.860742
 H        -5.348617         1.630279         1.121317
 H        -4.151850         2.736083         0.449074
 H        -4.268884        -0.242509        -0.578511
 H        -3.096680         0.997820        -1.101436
 H        -2.590901        -0.980919         1.029246
