19
Iteration:   178charge 0 multiplicity 1
 O        -0.040655        -0.208947         0.043130
 C        -0.903877         0.494934         0.843247
 C        -1.222620         2.013528         0.868834
 C        -2.354106         1.229196         1.767122
 C        -1.145253         0.404124         2.398700
 O        -3.678330         1.546306         2.083956
 C        -4.183210         1.719951         0.694020
 C        -3.574988         0.613726        -0.224002
 C        -2.367933         0.077472         0.685086
 H         0.832711         0.116240        -0.014790
 H        -0.467989         2.659821         1.401623
 H        -1.332452         2.434335        -0.045360
 H        -0.272907         0.737297         3.076320
 H        -1.424052        -0.621980         2.463815
 H        -5.272814         1.606346         0.666691
 H        -4.027900         2.819195         0.390234
 H        -4.237123        -0.216809        -0.509050
 H        -3.480415         1.181847        -1.208693
 H        -2.467292        -0.961612         0.990515
