19
Iteration:  4330charge 0 multiplicity 1
 O         0.051703        -0.251349         0.094172
 C        -0.873386         0.443327         0.844661
 C        -1.301500         1.970811         0.634982
 C        -2.276678         1.359439         1.689414
 C        -1.012537         0.670184         2.340374
 O        -3.607860         1.639231         2.070711
 C        -4.322902         1.616112         0.803529
 C        -3.593862         0.436940        -0.150857
 C        -2.406157         0.051123         0.771908
 H        -0.335884        -0.994087        -0.306893
 H        -0.662434         2.872677         1.033657
 H        -1.718174         2.260616        -0.420127
 H        -0.283953         1.325213         2.921954
 H        -1.324595        -0.245015         3.031874
 H        -5.393305         1.388373         1.042426
 H        -4.382826         2.662997         0.356097
 H        -4.203708        -0.442359        -0.267774
 H        -3.312851         0.922471        -1.029424
 H        -2.699686        -0.738668         1.429194
