19
Iteration:   414
 O         0.175575        -0.279410         0.082212
 C        -0.873782         0.392235         0.815875
 C        -1.294323         1.903713         0.727014
 C        -2.326048         1.249469         1.685809
 C        -1.092260         0.490976         2.383153
 O        -3.618626         1.797326         2.044189
 C        -4.415115         1.388091         0.922188
 C        -3.520989         0.890800        -0.299338
 C        -2.457804         0.146213         0.693964
 H         0.233473        -1.124330         0.585947
 H        -0.696305         2.733157         1.163919
 H        -1.644673         2.220267        -0.172503
 H        -0.291998         1.135544         2.803196
 H        -1.374213        -0.352518         2.927919
 H        -4.918764         0.471882         1.290626
 H        -5.130487         2.109353         0.750437
 H        -4.008558         0.087707        -0.810123
 H        -3.123179         1.540241        -1.059307
 H        -2.854703        -0.843125         0.985424
