19
Iteration:  3286
 O         0.169233        -0.167436         0.170955
 C        -0.934668         0.356136         0.812648
 C        -1.160669         1.840590         0.659692
 C        -2.247428         1.311129         1.646305
 C        -1.116844         0.552106         2.388946
 O        -3.494913         1.872919         1.966157
 C        -4.480841         1.329304         0.985701
 C        -3.630049         0.739750        -0.215788
 C        -2.525732         0.099467         0.636000
 H        -0.070843        -1.108392         0.090285
 H        -0.472621         2.426839         1.138052
 H        -1.335326         2.302373        -0.298206
 H        -0.215930         1.009755         2.819038
 H        -1.470705        -0.292527         3.054163
 H        -5.113908         0.625769         1.607806
 H        -5.292141         2.005683         0.702254
 H        -4.186665         0.074830        -0.928281
 H        -3.204149         1.567992        -0.738492
 H        -2.928993        -0.834860         1.029549
