19
Iteration:  3053charge 0 multiplicity 1
 O         0.227982        -0.213539         0.190080
 C        -0.869677         0.433248         0.707023
 C        -1.122992         1.926089         0.669312
 C        -2.232703         1.309348         1.563629
 C        -1.265626         0.447891         2.400059
 O        -3.469105         1.997430         1.920585
 C        -4.481358         1.315880         1.041762
 C        -3.714822         0.621798        -0.124168
 C        -2.443703         0.091728         0.614540
 H        -0.050578        -1.163202         0.003647
 H        -0.576474         2.525447         1.410654
 H        -1.428729         2.397110        -0.228038
 H        -0.635641         1.083030         3.097221
 H        -1.634591        -0.495908         2.830728
 H        -5.026852         0.549074         1.765643
 H        -5.246734         2.088870         0.894153
 H        -4.382223        -0.112534        -0.579245
 H        -3.557801         1.464447        -0.936723
 H        -2.680980        -0.820395         1.130631
