19
Iteration:   907
 O         0.039711        -0.243390         0.102352
 C        -0.906169         0.526045         0.786151
 C        -1.325475         1.972235         0.708753
 C        -2.272205         1.154172         1.719521
 C        -1.099298         0.467634         2.376811
 O        -3.493328         1.711513         1.999007
 C        -4.355211         1.558361         0.806112
 C        -3.574693         0.663432        -0.144599
 C        -2.493210         0.061143         0.759574
 H         0.991162         0.146816         0.148133
 H        -0.612250         2.715312         0.972585
 H        -1.873213         2.304334        -0.245286
 H        -0.331963         0.941252         2.979271
 H        -1.527070        -0.520049         2.625327
 H        -5.263319         1.079908         1.244099
 H        -4.703964         2.474724         0.310273
 H        -4.196608        -0.064398        -0.544303
 H        -3.024451         1.269101        -0.881744
 H        -2.552584        -0.881652         1.257778
