19
Iteration:   918charge 0 multiplicity 1
 O         0.155528        -0.260752         0.097019
 C        -0.881466         0.418255         0.748728
 C        -1.322760         1.922753         0.665314
 C        -2.305585         1.224628         1.661845
 C        -1.099700         0.462542         2.335159
 O        -3.575262         1.810953         2.103366
 C        -4.369466         1.505025         0.870371
 C        -3.542135         0.676084        -0.178173
 C        -2.534317         0.058113         0.743460
 H         0.910163         0.294783         0.335488
 H        -0.776716         2.628449         1.248837
 H        -1.747696         2.372850        -0.289095
 H        -0.395805         1.051908         2.951788
 H        -1.220189        -0.515058         2.849391
 H        -5.252715         0.904561         1.198720
 H        -4.674896         2.483771         0.490632
 H        -4.082059         0.035314        -0.806937
 H        -3.097185         1.337019        -0.939106
 H        -2.947437        -0.815040         1.228067
