19
Iteration:  1432
 O         0.023838        -0.196640         0.026747
 C        -0.877750         0.418390         0.844555
 C        -1.141594         1.903063         0.716150
 C        -2.326366         1.285209         1.693485
 C        -1.174132         0.460889         2.322617
 O        -3.556565         1.840063         1.980540
 C        -4.405522         1.450743         0.900343
 C        -3.538295         0.626243        -0.146154
 C        -2.434694         0.091197         0.768958
 H         0.854698         0.197452         0.210601
 H        -0.342959         2.431511         1.339063
 H        -1.382583         2.275809        -0.318022
 H        -0.457517         1.060895         2.953518
 H        -1.425957        -0.422617         2.797526
 H        -5.280280         0.893433         1.161173
 H        -4.872218         2.279584         0.401923
 H        -4.154735        -0.351885        -0.394051
 H        -3.389675         1.131867        -1.132781
 H        -2.911469        -0.819882         1.296200
