19
Iteration:  4689charge 0 multiplicity 1
 O         0.112476        -0.313468         0.108420
 C        -0.909605         0.418227         0.764464
 C        -1.292443         1.927442         0.626872
 C        -2.279973         1.300217         1.663981
 C        -1.061699         0.604640         2.341387
 O        -3.524836         1.824856         1.983194
 C        -4.381868         1.542955         0.843978
 C        -3.681036         0.486313        -0.044100
 C        -2.489579         0.050748         0.829889
 H         0.860134         0.263333        -0.092713
 H        -0.544860         2.571114         1.130829
 H        -1.626268         2.243587        -0.337415
 H        -0.298111         1.255356         2.720814
 H        -1.132241        -0.323573         2.917401
 H        -5.254443         1.061798         1.350268
 H        -4.630948         2.485250         0.177835
 H        -4.302107        -0.253363        -0.476136
 H        -3.331403         1.227236        -0.939106
 H        -2.655468        -0.888476         1.400468
