19
Iteration:  3303charge 0 multiplicity 1
 O         0.215967        -0.246230         0.235152
 C        -0.886095         0.415735         0.800747
 C        -1.143083         1.911510         0.620297
 C        -2.315033         1.281408         1.583299
 C        -1.212747         0.431295         2.325107
 O        -3.519146         1.939947         1.930207
 C        -4.440799         1.271483         1.097800
 C        -3.653918         0.790039        -0.177495
 C        -2.457490         0.184836         0.620585
 H         0.192795        -1.233068         0.183248
 H        -0.325324         2.675137         1.001924
 H        -1.535633         2.096429        -0.419189
 H        -0.634819         1.099984         2.982210
 H        -1.492860        -0.532439         2.668649
 H        -4.926044         0.348232         1.430822
 H        -5.318798         2.003144         0.948397
 H        -4.226535        -0.066124        -0.512107
 H        -3.565663         1.638487        -0.951275
 H        -2.661454        -0.754570         1.209451
