19
Iteration:  2440
 O         0.117230        -0.325114         0.248145
 C        -0.905064         0.426059         0.741392
 C        -1.113274         1.996190         0.703199
 C        -2.256275         1.258376         1.559201
 C        -1.136201         0.498618         2.303253
 O        -3.533059         1.795478         2.049442
 C        -4.467506         1.414035         0.970017
 C        -3.645726         0.705913        -0.179643
 C        -2.496108         0.159172         0.660706
 H         0.456678        -0.097050        -0.586781
 H        -0.364270         2.593990         1.311266
 H        -1.500450         2.480308        -0.280166
 H        -0.331435         0.910357         2.826549
 H        -1.388461        -0.506056         2.927818
 H        -5.199205         0.694010         1.367768
 H        -5.033895         2.258452         0.572111
 H        -4.211394        -0.216966        -0.556482
 H        -3.485909         1.433817        -0.941504
 H        -2.708503        -0.780562         1.139820
