19
Iteration:   930charge 0 multiplicity 1
 O         0.224095        -0.238359         0.107150
 C        -0.987163         0.286754         0.777373
 C        -1.272092         1.861862         0.744601
 C        -2.360049         1.308903         1.726504
 C        -1.099738         0.527604         2.286307
 O        -3.566567         1.823418         2.100126
 C        -4.455882         1.482363         0.945453
 C        -3.563145         0.706526        -0.255989
 C        -2.456777         0.055983         0.639427
 H         1.027960         0.216482         0.344468
 H        -0.376555         2.452033         1.093556
 H        -1.472217         2.279836        -0.303902
 H        -0.345857         1.288755         2.624902
 H        -1.293604        -0.333923         2.886863
 H        -5.339681         0.873156         1.273416
 H        -4.856216         2.419908         0.535851
 H        -4.294997        -0.033086        -0.598755
 H        -3.194284         1.460713        -0.947442
 H        -2.704183        -0.952911         1.047238
