19
Iteration:  4225charge 0 multiplicity 1
 O         0.217689        -0.343749         0.203545
 C        -0.834326         0.494876         0.743166
 C        -1.233484         1.973891         0.569355
 C        -2.311972         1.357341         1.571200
 C        -1.167227         0.587057         2.348067
 O        -3.466910         1.862642         1.973326
 C        -4.451145         1.266543         1.030458
 C        -3.740173         0.685772        -0.153771
 C        -2.436959         0.144665         0.714635
 H         0.153392        -1.157389         0.699984
 H        -0.511230         2.668341         0.859358
 H        -1.559518         2.268910        -0.368311
 H        -0.452549         1.041281         3.021571
 H        -1.534039        -0.292445         2.721011
 H        -4.950622         0.438158         1.623436
 H        -5.112241         2.062628         0.710691
 H        -4.449993        -0.098811        -0.657402
 H        -3.522043         1.265123        -1.063735
 H        -2.624091        -0.812844         1.375599
