19
Iteration:  2701
 O         0.189099        -0.360702         0.194480
 C        -0.910425         0.404493         0.749302
 C        -1.142828         1.951047         0.646052
 C        -2.330018         1.308402         1.627099
 C        -1.199106         0.535529         2.363960
 O        -3.542506         1.856436         2.060657
 C        -4.446991         1.352044         0.969333
 C        -3.588087         0.749834        -0.168102
 C        -2.430073         0.146168         0.651665
 H        -0.020469        -0.141207        -0.792725
 H        -0.360317         2.561440         1.011651
 H        -1.570131         2.363482        -0.283804
 H        -0.558287         0.964694         3.134270
 H        -1.465611        -0.565833         2.646130
 H        -5.172126         0.656511         1.493122
 H        -5.201719         2.029724         0.820824
 H        -4.066338        -0.057151        -0.844442
 H        -3.225483         1.437251        -0.946046
 H        -2.791022        -0.752043         1.247859
