19
Iteration:  3149
 O         0.213606        -0.160854         0.110342
 C        -0.955187         0.405961         0.710757
 C        -1.283072         1.868976         0.691691
 C        -2.307147         1.226252         1.683701
 C        -1.082124         0.531608         2.303595
 O        -3.613143         1.792811         2.051722
 C        -4.324734         1.619904         0.846886
 C        -3.670154         0.519704        -0.100088
 C        -2.481332         0.085323         0.745916
 H         0.634992        -0.889051         0.621165
 H        -0.519968         2.532741         1.261849
 H        -1.564490         2.321857        -0.271139
 H        -0.329663         1.140918         2.714583
 H        -1.235447        -0.355991         2.902622
 H        -5.358814         1.464155         1.115705
 H        -4.274873         2.647881         0.211794
 H        -4.376180        -0.304349        -0.288659
 H        -3.397550         0.903027        -1.158753
 H        -2.607359        -0.865110         1.340860
