19
Iteration:  2464
 O         0.150451        -0.306913         0.166395
 C        -0.876793         0.378948         0.831015
 C        -1.226336         1.979904         0.656257
 C        -2.250004         1.238655         1.659410
 C        -1.109006         0.534544         2.378125
 O        -3.567902         1.757022         2.070012
 C        -4.489101         1.466283         0.955956
 C        -3.597787         0.727157        -0.241075
 C        -2.447394         0.132041         0.674028
 H        -0.082977        -0.339895        -0.813000
 H        -0.272600         2.450241         0.959423
 H        -1.613475         2.272455        -0.354700
 H        -0.334733         1.159974         2.818787
 H        -1.276069        -0.350911         3.176135
 H        -5.351218         0.890939         1.204029
 H        -4.844905         2.467100         0.587765
 H        -4.082734        -0.178972        -0.751279
 H        -3.332524         1.534898        -0.989414
 H        -2.832675        -0.804068         1.059743
