19
Iteration:  1376charge 0 multiplicity 1
 O        -0.009656        -0.325307         0.163891
 C        -0.919165         0.461981         0.793272
 C        -1.198885         1.942811         0.687938
 C        -2.253243         1.316932         1.701125
 C        -1.106151         0.453306         2.366862
 O        -3.570426         1.857514         2.032732
 C        -4.464348         1.370117         0.930168
 C        -3.569815         0.676318        -0.194607
 C        -2.348016         0.127941         0.596427
 H         0.843950         0.207502         0.044718
 H        -0.389192         2.709680         1.069891
 H        -1.581624         2.294435        -0.258569
 H        -0.378658         1.089965         2.866569
 H        -1.423051        -0.375202         2.954562
 H        -5.079897         0.606347         1.394948
 H        -4.944541         2.201144         0.489676
 H        -4.234090        -0.165171        -0.695027
 H        -3.270336         1.467775        -0.880292
 H        -2.615078        -0.949479         0.930161
