19
Iteration:  1240charge 0 multiplicity 1
 O         0.029551        -0.289483         0.099808
 C        -0.936695         0.457540         0.733594
 C        -1.268303         2.014382         0.683973
 C        -2.312752         1.191483         1.709230
 C        -1.170771         0.554791         2.382983
 O        -3.542433         1.750856         2.151749
 C        -4.342134         1.510105         0.853825
 C        -3.511273         0.561415        -0.222219
 C        -2.428863         0.085550         0.677223
 H         0.853079         0.153759        -0.133551
 H        -0.604717         2.700310         1.169980
 H        -1.808959         2.370413        -0.242542
 H        -0.401220         1.023954         2.914404
 H        -1.501078        -0.307009         3.011084
 H        -5.286031         1.217333         1.121881
 H        -4.235925         2.473602         0.310771
 H        -4.156762        -0.108024        -0.649782
 H        -3.038109         1.211594        -0.980446
 H        -2.634774        -0.832682         1.268524
