19
Iteration:  4384
 O         0.201359        -0.041453         0.123947
 C        -0.923180         0.399627         0.808755
 C        -1.348929         1.822289         0.602552
 C        -2.340729         1.246132         1.695210
 C        -1.097861         0.577796         2.368795
 O        -3.526445         1.801137         2.028092
 C        -4.253616         1.637215         0.791675
 C        -3.727138         0.437021        -0.030270
 C        -2.437711        -0.039107         0.718253
 H        -0.066713        -0.886014        -0.288095
 H        -0.607262         2.629647         1.002737
 H        -1.616397         2.149428        -0.472420
 H        -0.252935         1.213612         2.738830
 H        -1.253727        -0.204723         3.219085
 H        -5.326016         1.531020         1.051488
 H        -3.970448         2.633306         0.270083
 H        -4.387698        -0.381961        -0.042597
 H        -3.621366         0.871422        -1.015103
 H        -2.805716        -0.880901         1.281100
