19
Iteration:  4674charge 0 multiplicity 1
 O         0.135718        -0.180294         0.180296
 C        -0.979206         0.337621         0.801057
 C        -1.258535         1.842025         0.598913
 C        -2.276462         1.269334         1.575834
 C        -1.057378         0.575802         2.269976
 O        -3.446302         1.924268         2.019251
 C        -4.367117         1.440702         0.932291
 C        -3.625334         0.537671        -0.135319
 C        -2.589790        -0.007613         0.813511
 H         0.648903         0.552726        -0.096600
 H        -0.554325         2.611051         0.980592
 H        -1.676611         2.273082        -0.400218
 H        -0.372507         1.267173         2.882061
 H        -1.361216        -0.312050         2.912744
 H        -5.368165         1.119493         1.354497
 H        -4.639003         2.516302         0.512563
 H        -4.388790        -0.240819        -0.516134
 H        -3.162367         0.848516        -1.001914
 H        -2.970585        -0.693247         1.539606
