19
Iteration:  3836charge 0 multiplicity 1
 O         0.046389        -0.281522         0.089106
 C        -0.926756         0.416739         0.764426
 C        -1.166702         1.957572         0.674055
 C        -2.262505         1.440279         1.675439
 C        -1.080018         0.654507         2.372634
 O        -3.590995         1.778746         1.996559
 C        -4.368078         1.372573         0.843619
 C        -3.563032         0.520486        -0.111225
 C        -2.467177         0.084245         0.835411
 H        -0.245130        -0.788963        -0.622501
 H        -0.410520         2.681352         0.986417
 H        -1.594259         2.246177        -0.297431
 H        -0.171154         1.164693         2.752366
 H        -1.428662        -0.147804         3.003003
 H        -5.229472         0.837687         1.231819
 H        -5.000080         2.215894         0.525765
 H        -4.059364        -0.219917        -0.686854
 H        -2.974871         1.230470        -0.851702
 H        -2.824277        -0.733096         1.573494
