19
Iteration:  1074
 O         0.127916        -0.301237         0.161823
 C        -0.878718         0.419767         0.729044
 C        -1.223948         1.894642         0.723699
 C        -2.290163         1.274155         1.712206
 C        -1.097775         0.503725         2.319553
 O        -3.645917         1.778727         2.002594
 C        -4.407482         1.549550         0.896536
 C        -3.631901         0.613410        -0.091034
 C        -2.426333         0.089795         0.637733
 H         0.916542         0.346744         0.134885
 H        -0.531430         2.595174         1.367056
 H        -1.639968         2.420006        -0.116153
 H        -0.209302         1.246080         2.698495
 H        -1.177918        -0.437552         2.835352
 H        -5.489243         1.302828         1.164455
 H        -4.485642         2.447774         0.214965
 H        -4.372586        -0.164060        -0.533859
 H        -3.249475         1.189221        -0.906810
 H        -2.666650        -0.938666         1.014743
