19
Iteration:   304charge 0 multiplicity 1
 O         0.146404        -0.195544         0.106042
 C        -0.990639         0.396406         0.772045
 C        -1.242440         1.934492         0.778948
 C        -2.274731         1.328489         1.751288
 C        -1.133175         0.414604         2.401544
 O        -3.594162         1.716049         2.043196
 C        -4.408833         1.470545         0.835441
 C        -3.438548         0.760723        -0.265051
 C        -2.469715         0.111109         0.688463
 H        -0.226861        -0.808530        -0.631624
 H        -0.422651         2.570547         1.189348
 H        -1.696672         2.352789        -0.087962
 H        -0.307381         0.904144         2.984518
 H        -1.478875        -0.472776         2.922016
 H        -5.173516         0.769061         1.259535
 H        -4.838003         2.366935         0.449548
 H        -3.977071        -0.009097        -0.828655
 H        -2.974100         1.443052        -0.951025
 H        -2.904566        -0.641280         1.392022
