19
Iteration:   607charge 0 multiplicity 1
 O         0.042001        -0.174738        -0.068199
 C        -0.902342         0.374349         0.874643
 C        -1.266499         1.859267         0.799950
 C        -2.288990         1.170750         1.746583
 C        -1.144601         0.487814         2.457621
 O        -3.532562         1.834293         1.997770
 C        -4.369060         1.521226         0.845501
 C        -3.575160         0.597153        -0.250753
 C        -2.418378         0.100085         0.708589
 H         0.815092         0.468562         0.022770
 H        -0.632264         2.620090         1.424743
 H        -1.748537         2.428750        -0.043475
 H        -0.378010         1.176389         2.972426
 H        -1.261809        -0.339904         3.106632
 H        -5.381646         1.174765         1.160146
 H        -4.569499         2.515519         0.339447
 H        -4.043409        -0.386732        -0.529206
 H        -3.242017         1.014259        -1.139917
 H        -2.795388        -0.761010         1.255939
