19
Iteration:   745charge 0 multiplicity 1
 O         0.014600        -0.283849         0.101127
 C        -0.930059         0.439215         0.827364
 C        -1.237835         1.979597         0.842731
 C        -2.270840         1.248023         1.629457
 C        -1.034235         0.464429         2.360327
 O        -3.491164         1.890999         1.941223
 C        -4.467109         1.361769         0.893007
 C        -3.560196         0.704878        -0.160403
 C        -2.459487         0.034837         0.652559
 H         0.822446         0.229836        -0.103068
 H        -0.574681         2.499305         1.514864
 H        -1.562768         2.589773        -0.113807
 H        -0.393869         1.135610         2.918963
 H        -1.502502        -0.332520         2.907045
 H        -5.219364         0.692385         1.381555
 H        -5.069989         2.164969         0.429839
 H        -4.198469        -0.123694        -0.631940
 H        -3.123969         1.429765        -0.958210
 H        -2.699267        -0.997912         1.067689
