19
Iteration:  4297charge 0 multiplicity 1
 O         0.126361        -0.185962         0.073611
 C        -0.933445         0.415941         0.746341
 C        -1.259280         1.912532         0.674435
 C        -2.295608         1.306807         1.724022
 C        -1.128595         0.609642         2.372784
 O        -3.545143         1.916204         2.009229
 C        -4.420294         1.525574         0.914394
 C        -3.570214         0.428661        -0.106039
 C        -2.382410        -0.002279         0.700850
 H        -0.005677        -1.159529        -0.088394
 H        -0.444566         2.548402         1.235499
 H        -1.626706         2.389739        -0.349200
 H        -0.349501         1.288952         2.855658
 H        -1.492912        -0.341117         3.008755
 H        -5.267325         0.925861         1.288813
 H        -4.712167         2.417854         0.280020
 H        -4.199387        -0.369573        -0.491761
 H        -3.444661         0.939901        -1.017127
 H        -2.538221        -0.879423         1.265469
