19
Iteration:  2755
 O         0.197013        -0.324460         0.264919
 C        -0.897802         0.421695         0.696219
 C        -1.180544         1.994443         0.739185
 C        -2.286995         1.271461         1.647787
 C        -1.151610         0.454539         2.305995
 O        -3.512508         1.949088         1.976547
 C        -4.409931         1.303333         0.994513
 C        -3.656907         0.723086        -0.179804
 C        -2.506659         0.129540         0.660087
 H         0.030296        -0.326537        -0.725606
 H        -0.713592         2.775711         1.170791
 H        -1.689778         2.269977        -0.162864
 H        -0.343302         0.870485         2.915409
 H        -1.701294        -0.507917         2.676287
 H        -4.880947         0.524622         1.665636
 H        -5.036256         2.071471         0.662892
 H        -4.252500        -0.036958        -0.797845
 H        -3.238082         1.486998        -0.836070
 H        -2.696410        -0.896489         0.841193
