19
Iteration:   762
 O         0.048172        -0.364709         0.105324
 C        -0.902811         0.465186         0.697117
 C        -1.209518         2.045313         0.799060
 C        -2.298144         1.285095         1.695515
 C        -1.241456         0.518432         2.368175
 O        -3.552933         1.736876         2.007386
 C        -4.369195         1.476765         0.883884
 C        -3.565032         0.584967        -0.150113
 C        -2.364703         0.149673         0.684925
 H         0.720596         0.164997        -0.323069
 H        -0.487252         2.730034         1.281143
 H        -1.563115         2.541410        -0.071088
 H        -0.470435         1.027098         2.969408
 H        -1.347692        -0.553418         2.688849
 H        -5.234137         0.948231         1.361978
 H        -4.728404         2.438576         0.496922
 H        -4.153856        -0.202034        -0.521133
 H        -3.326842         1.212341        -0.980274
 H        -2.589793        -0.777403         1.185511
