19
Iteration:   481charge 0 multiplicity 1
 O         0.170361        -0.227717         0.139764
 C        -0.857055         0.492888         0.761039
 C        -1.179257         1.926436         0.809399
 C        -2.344561         1.218885         1.718250
 C        -1.143665         0.422727         2.333289
 O        -3.578303         1.820615         2.045109
 C        -4.433722         1.608439         0.816439
 C        -3.635456         0.489348        -0.149638
 C        -2.410183         0.081683         0.657665
 H         0.357434         0.106666        -0.791048
 H        -0.466173         2.649243         1.189623
 H        -1.805531         2.440626         0.089880
 H        -0.500723         1.080895         2.882567
 H        -1.417601        -0.547586         2.791988
 H        -5.369952         1.175038         1.163303
 H        -4.510604         2.580115         0.360889
 H        -4.346608        -0.258085        -0.404914
 H        -3.493822         1.118337        -1.062082
 H        -2.532170        -0.922779         1.105320
