19
Iteration:   467
 O         0.177831        -0.252116         0.064914
 C        -0.880539         0.429289         0.807712
 C        -1.197597         2.010441         0.786783
 C        -2.315667         1.230785         1.711500
 C        -1.198638         0.458546         2.417677
 O        -3.586074         1.847830         2.081568
 C        -4.369805         1.454324         0.807290
 C        -3.648814         0.601834        -0.188077
 C        -2.407805         0.149794         0.655611
 H        -0.143909        -0.140520        -0.865694
 H        -0.551175         2.594629         1.464720
 H        -1.134236         2.368012        -0.166566
 H        -0.472165         0.949318         3.090816
 H        -1.403962        -0.490145         2.744096
 H        -5.296937         0.998226         1.200630
 H        -4.603290         2.357140         0.317489
 H        -4.173123        -0.422273        -0.243294
 H        -3.467294         0.895658        -1.215786
 H        -2.656558        -0.859593         0.988244
