19
Iteration:  1757charge 0 multiplicity 1
 O         0.105514        -0.375932         0.106256
 C        -0.889862         0.484775         0.773973
 C        -1.059838         1.966168         0.721011
 C        -2.300877         1.348752         1.722772
 C        -1.178107         0.494772         2.333015
 O        -3.537100         1.850046         2.045884
 C        -4.483627         1.319210         0.966215
 C        -3.694900         0.632394        -0.216125
 C        -2.453005         0.215136         0.604464
 H         0.988368         0.084471         0.266830
 H        -0.182293         2.431085         1.127372
 H        -1.379657         2.502180        -0.177047
 H        -0.405682         1.082917         2.930352
 H        -1.360096        -0.357182         2.915330
 H        -5.197620         0.536351         1.360969
 H        -5.232224         2.077961         0.597768
 H        -4.194214        -0.219925        -0.727494
 H        -3.410436         1.301459        -0.992825
 H        -2.665511        -0.762417         1.033817
