19
Iteration:  2368
 O         0.167182        -0.295091         0.151558
 C        -0.938278         0.367463         0.731751
 C        -1.130456         1.952177         0.703925
 C        -2.272853         1.299599         1.650210
 C        -1.184878         0.457339         2.358224
 O        -3.538046         1.904546         2.012532
 C        -4.465799         1.331055         0.932436
 C        -3.611799         0.728735        -0.127394
 C        -2.462093         0.102872         0.634739
 H         0.165682        -0.059319        -0.789201
 H        -0.441883         2.374750         1.413171
 H        -1.367349         2.479457        -0.183875
 H        -0.428654         0.944284         3.039946
 H        -1.589235        -0.133597         3.056180
 H        -5.158714         0.618471         1.449670
 H        -5.060797         2.190173         0.461063
 H        -4.294677         0.036189        -0.576648
 H        -3.052977         1.505012        -0.756521
 H        -2.703839        -0.781857         1.287015
