19
Iteration:   594
 O         0.061331        -0.198913        -0.034278
 C        -0.900702         0.450484         0.750832
 C        -1.294015         1.951570         0.899884
 C        -2.337423         1.246464         1.751346
 C        -1.095378         0.404377         2.391374
 O        -3.557982         1.797639         1.963980
 C        -4.354264         1.571951         0.719185
 C        -3.536327         0.537248        -0.094568
 C        -2.456989         0.089278         0.820013
 H         0.800809         0.378799        -0.243135
 H        -0.584696         2.635049         1.455120
 H        -1.520544         2.252913        -0.219037
 H        -0.338237         1.043757         2.984943
 H        -1.376035        -0.623338         2.731524
 H        -5.263000         1.094279         1.115400
 H        -4.539637         2.577305         0.227382
 H        -4.305578        -0.239550        -0.307756
 H        -3.275915         1.032561        -1.034617
 H        -2.618001        -0.952467         1.191133
