19
Iteration:  1669charge 0 multiplicity 1
 O         0.035017        -0.242134         0.049876
 C        -0.899867         0.483338         0.774672
 C        -1.132220         1.948359         0.698823
 C        -2.272367         1.222439         1.670997
 C        -1.152856         0.518121         2.385312
 O        -3.541222         1.812181         2.041286
 C        -4.433748         1.450774         0.864815
 C        -3.621947         0.551728        -0.117707
 C        -2.441267         0.133553         0.644679
 H         0.950377        -0.145173         0.407157
 H        -0.477159         2.546759         1.372004
 H        -1.399860         2.500986        -0.160201
 H        -0.477451         1.021831         3.192155
 H        -1.576584        -0.412874         2.909074
 H        -5.395053         0.977512         1.398342
 H        -4.599944         2.518239         0.392182
 H        -4.211283        -0.312768        -0.502778
 H        -3.345476         1.130594        -0.998080
 H        -2.584917        -0.849060         1.099325
