19
Iteration:  2896charge 0 multiplicity 1
 O         0.186088        -0.025535         0.116540
 C        -0.936909         0.421897         0.806701
 C        -1.348438         1.873560         0.609221
 C        -2.336937         1.190341         1.660304
 C        -1.117505         0.468049         2.368701
 O        -3.549213         1.772124         2.054395
 C        -4.206918         1.710558         0.814935
 C        -3.695083         0.538946        -0.068303
 C        -2.457742        -0.030134         0.765795
 H         0.075741        -1.025817        -0.101205
 H        -0.720521         2.683579         0.999200
 H        -1.636152         2.004733        -0.464204
 H        -0.392970         1.051983         2.825503
 H        -1.304488        -0.558579         2.784655
 H        -5.265143         1.479841         1.140206
 H        -3.938931         2.596364         0.228280
 H        -4.497646        -0.292809        -0.178752
 H        -3.461727         0.895062        -1.053094
 H        -2.515731        -1.050814         1.236174
