19
Iteration:  3252charge 0 multiplicity 1
 O         0.042580        -0.221720        -0.001848
 C        -0.913077         0.490404         0.822576
 C        -1.276078         1.933113         0.699512
 C        -2.268693         1.262440         1.736013
 C        -1.091176         0.506396         2.438961
 O        -3.584687         1.812703         2.011915
 C        -4.348921         1.557981         0.838999
 C        -3.526485         0.546227        -0.171542
 C        -2.438638         0.093113         0.741272
 H         0.066189        -1.099788         0.310459
 H        -0.656711         2.536959         1.256864
 H        -1.592442         2.266529        -0.297120
 H        -0.190325         0.983872         2.896652
 H        -1.523161        -0.422340         2.835391
 H        -5.141875         0.817557         1.177340
 H        -4.670725         2.546307         0.361423
 H        -4.034202        -0.362368        -0.650256
 H        -3.323371         1.254830        -0.950621
 H        -2.567614        -0.847357         1.261348
