19
Iteration:  2749
 O         0.158566        -0.317884         0.291100
 C        -0.877269         0.458808         0.716068
 C        -1.190167         2.006750         0.713412
 C        -2.264907         1.268380         1.658937
 C        -1.151159         0.417760         2.306353
 O        -3.502249         1.937953         1.962192
 C        -4.404716         1.285392         1.010536
 C        -3.657915         0.717487        -0.179637
 C        -2.511453         0.133283         0.620290
 H         0.024776        -0.488030        -0.616127
 H        -0.412386         2.782153         1.258328
 H        -1.615232         2.370496        -0.267510
 H        -0.408397         0.972386         2.894690
 H        -1.384729        -0.541847         2.687799
 H        -5.052672         0.601258         1.546406
 H        -5.244335         2.009518         0.623842
 H        -4.371335         0.152811        -0.730336
 H        -3.395310         1.555064        -0.859097
 H        -2.606393        -0.988084         0.898891
