19
Iteration:  4182
 O         0.135546        -0.302867         0.084812
 C        -0.899883         0.398601         0.787307
 C        -1.200511         1.958589         0.637912
 C        -2.235372         1.368218         1.645673
 C        -1.123990         0.699557         2.373282
 O        -3.538408         1.913559         1.954047
 C        -4.412858         1.275716         0.938553
 C        -3.586221         0.616869        -0.134350
 C        -2.518084         0.044867         0.810541
 H        -0.267417        -1.171547        -0.185216
 H        -0.571829         2.676589         1.146680
 H        -1.429943         2.398564        -0.302848
 H        -0.455808         1.381100         2.909347
 H        -1.426772        -0.192831         2.825254
 H        -4.803369         0.324340         1.439555
 H        -5.266225         1.981949         0.785048
 H        -4.244224        -0.100129        -0.792313
 H        -3.210817         1.292455        -0.936401
 H        -2.811493        -0.904319         1.413899
