19
Iteration:  2497charge 0 multiplicity 1
 O         0.104228        -0.192129         0.171524
 C        -0.954309         0.442227         0.768465
 C        -1.293473         2.002756         0.720224
 C        -2.334560         1.191301         1.694991
 C        -1.066631         0.445426         2.331799
 O        -3.509236         1.821207         2.043107
 C        -4.327845         1.524962         0.855357
 C        -3.532726         0.621180        -0.190057
 C        -2.509031         0.033850         0.746775
 H        -0.386450        -0.711859        -0.545698
 H        -0.352218         2.531059         0.999468
 H        -1.711724         2.579243        -0.152379
 H        -0.341360         1.110453         2.789428
 H        -1.327948        -0.610697         2.788604
 H        -5.207663         1.080160         1.256071
 H        -4.602993         2.523736         0.398441
 H        -4.169422        -0.219305        -0.621279
 H        -3.284133         1.194492        -1.076517
 H        -2.573537        -0.882869         1.242127
