19
Iteration:  4345
 O         0.143531        -0.244306         0.115968
 C        -0.938565         0.448322         0.705191
 C        -1.369457         1.938122         0.590556
 C        -2.315959         1.253535         1.727948
 C        -1.055316         0.668054         2.355959
 O        -3.690223         1.724994         2.135530
 C        -4.253716         1.588898         0.779108
 C        -3.521520         0.533885        -0.030458
 C        -2.411747         0.053059         0.793367
 H        -0.238656        -1.019175        -0.327667
 H        -0.584642         2.574441         0.902700
 H        -1.827131         2.162572        -0.326274
 H        -0.271800         1.379063         2.604120
 H        -1.166363        -0.249892         2.866329
 H        -5.376570         1.455381         0.788185
 H        -4.065248         2.451703         0.230792
 H        -4.287614        -0.335654        -0.334873
 H        -3.303242         0.868389        -1.079223
 H        -2.401924        -0.984377         1.239090
