19
Iteration:  4070charge 0 multiplicity 1
 O         0.195607        -0.202872         0.170321
 C        -0.959670         0.423579         0.705015
 C        -1.417026         1.911538         0.546711
 C        -2.271331         1.277702         1.648898
 C        -1.049248         0.710842         2.291754
 O        -3.588857         1.643329         2.131454
 C        -4.226301         1.664506         0.828109
 C        -3.703443         0.526273        -0.047721
 C        -2.455447        -0.073468         0.763718
 H         0.526222        -0.867589         0.882182
 H        -0.613601         2.598917         0.820985
 H        -1.859994         2.259068        -0.429828
 H        -0.385390         1.523934         2.507092
 H        -1.093259         0.002890         3.070139
 H        -5.405489         1.691086         0.755811
 H        -4.036577         2.617410         0.294990
 H        -4.513857        -0.392975        -0.376451
 H        -3.333470         1.042015        -1.010826
 H        -2.667350        -1.022469         1.457673
