19
Iteration:   207charge 0 multiplicity 1
 O         0.209966        -0.048753         0.010960
 C        -0.937723         0.344864         0.756476
 C        -1.428613         1.870695         0.881341
 C        -2.364831         1.056107         1.690230
 C        -1.201504         0.391470         2.430989
 O        -3.546257         1.711450         2.088551
 C        -4.154760         1.803525         0.704388
 C        -3.605544         0.661264        -0.173128
 C        -2.507752        -0.032655         0.670789
 H         1.025797         0.050104         0.626977
 H        -0.772825         2.586374         1.494322
 H        -1.723563         2.332258        -0.093412
 H        -0.463953         1.098137         2.835224
 H        -1.290669        -0.556199         2.907748
 H        -5.241637         1.593896         0.800008
 H        -4.017889         2.809025         0.383928
 H        -4.323088        -0.039605        -0.472757
 H        -3.323299         1.162552        -1.048602
 H        -2.746526        -0.992543         1.072580
