19
Iteration:  1012
 O        -0.013698        -0.246193         0.048298
 C        -0.873783         0.388266         0.845612
 C        -1.137157         1.914106         0.739997
 C        -2.261176         1.277871         1.624455
 C        -1.117564         0.531898         2.405535
 O        -3.516906         1.865221         1.889613
 C        -4.524911         1.289672         0.923057
 C        -3.546488         0.743190        -0.160581
 C        -2.483823         0.097165         0.740173
 H         0.998371        -0.329590         0.128225
 H        -0.591252         2.630223         1.366373
 H        -1.540408         2.357822        -0.200384
 H        -0.467619         1.047813         2.994241
 H        -1.390585        -0.376111         2.961438
 H        -5.014531         0.517740         1.481392
 H        -5.209489         2.128477         0.794953
 H        -4.004446         0.233444        -1.012683
 H        -2.989688         1.572825        -0.698910
 H        -2.632053        -0.795903         1.383763
