19
Iteration:   857charge 0 multiplicity 1
 O         0.064965        -0.168180        -0.047201
 C        -0.942202         0.464003         0.757149
 C        -1.237979         1.971050         0.775268
 C        -2.260862         1.256353         1.718527
 C        -1.113716         0.441276         2.458568
 O        -3.632911         1.631323         1.989541
 C        -4.261868         1.717662         0.693032
 C        -3.664157         0.511030        -0.040862
 C        -2.442059         0.012238         0.796484
 H         0.820526         0.248169         0.305283
 H        -0.473049         2.662966         1.307851
 H        -1.627946         2.507850        -0.055273
 H        -0.370781         1.111321         3.024848
 H        -1.208573        -0.570023         2.785831
 H        -5.329943         1.739333         0.928884
 H        -4.026218         2.632365         0.066469
 H        -4.449322        -0.385936        -0.161817
 H        -3.314802         0.850306        -1.014238
 H        -2.531710        -0.901515         1.464589
