19
Iteration:  4364charge 0 multiplicity 1
 O         0.164459        -0.132927         0.150408
 C        -0.963510         0.427141         0.774083
 C        -1.397161         1.924059         0.585780
 C        -2.324155         1.159579         1.722787
 C        -0.991345         0.663082         2.344173
 O        -3.505402         1.709995         2.035865
 C        -4.256283         1.702835         0.752673
 C        -3.642502         0.459537        -0.114529
 C        -2.496776        -0.032514         0.851134
 H        -0.160554        -0.877622        -0.301850
 H        -0.829684         2.804140         1.052012
 H        -1.964826         2.225215        -0.368844
 H        -0.406766         1.428541         2.950478
 H        -1.106668        -0.364529         2.908286
 H        -5.278510         1.519063         1.226761
 H        -4.145504         2.706825         0.310896
 H        -4.434967        -0.284478        -0.421964
 H        -3.265126         0.717066        -1.036587
 H        -2.748338        -0.954895         1.345658
