19
Iteration:  1953
 O         0.028797        -0.281563         0.061890
 C        -0.972224         0.466918         0.769223
 C        -1.279403         2.040621         0.762327
 C        -2.313570         1.201003         1.716737
 C        -1.054394         0.504124         2.301645
 O        -3.556391         1.680664         2.061790
 C        -4.297121         1.623602         0.727922
 C        -3.611215         0.544209        -0.067399
 C        -2.437076         0.098227         0.728642
 H         0.908487         0.104393         0.176389
 H        -0.447478         2.545391         1.422516
 H        -1.625597         2.489440        -0.246536
 H        -0.402162         1.158637         2.992695
 H        -1.377844        -0.285241         2.850862
 H        -5.290789         1.490622         1.043522
 H        -4.023586         2.473802         0.219957
 H        -4.267458        -0.432099        -0.144867
 H        -3.383753         0.959845        -1.059222
 H        -2.739783        -0.845665         1.129095
