19
Iteration:   844charge 0 multiplicity 1
 O         0.013853        -0.085449         0.058037
 C        -0.946527         0.426551         0.777250
 C        -1.352042         1.901552         0.737801
 C        -2.311602         1.155873         1.758302
 C        -1.061629         0.445763         2.400936
 O        -3.580487         1.730848         2.023310
 C        -4.200902         1.716445         0.738133
 C        -3.591768         0.491829        -0.089352
 C        -2.421763         0.053405         0.704205
 H         0.951120         0.272841         0.254822
 H        -0.574503         2.611068         1.164464
 H        -1.795773         2.145218        -0.301816
 H        -0.232721         0.918367         3.007294
 H        -1.457451        -0.420293         2.862899
 H        -5.288261         1.586244         0.826907
 H        -3.976887         2.756082         0.323532
 H        -4.379633        -0.414801        -0.026544
 H        -3.509838         0.702658        -1.192270
 H        -2.704957        -0.984533         1.086322
