19
Iteration:  1633
 O         0.083395        -0.269101         0.110332
 C        -0.848848         0.444444         0.750311
 C        -1.337072         1.996774         0.667558
 C        -2.322963         1.218162         1.720366
 C        -1.024948         0.510109         2.340422
 O        -3.549209         1.680817         2.078631
 C        -4.343624         1.615317         0.818502
 C        -3.642367         0.552646        -0.147636
 C        -2.484935         0.096461         0.745707
 H         1.034765        -0.009917         0.355817
 H        -0.638716         2.675329         1.247730
 H        -1.707314         2.488826        -0.267381
 H        -0.359891         1.142162         2.889725
 H        -1.453666        -0.442351         2.853677
 H        -5.498051         1.470977         1.047752
 H        -4.265882         2.551801         0.270562
 H        -4.234306        -0.253971        -0.585306
 H        -3.274876         1.297168        -0.974663
 H        -2.758965        -0.927419         1.032939
