19
Iteration:  1259
 O        -0.014934        -0.310057         0.007920
 C        -0.913337         0.423798         0.873428
 C        -1.212969         1.978270         0.744682
 C        -2.298811         1.328107         1.721815
 C        -1.174004         0.565070         2.393274
 O        -3.523891         1.673350         1.958478
 C        -4.369343         1.538656         0.861831
 C        -3.564991         0.636077        -0.130990
 C        -2.380200         0.085201         0.694304
 H         0.825244         0.243427        -0.135388
 H        -0.590435         2.678848         1.323970
 H        -1.508172         2.432512        -0.172768
 H        -0.462511         1.213345         3.184845
 H        -1.343144        -0.435243         2.806065
 H        -5.159087         0.803457         1.225599
 H        -4.740200         2.458299         0.329041
 H        -4.136005        -0.323607        -0.334345
 H        -3.292824         1.109305        -1.040714
 H        -2.676428        -0.864130         1.082110
