19
Iteration:   653charge 0 multiplicity 1
 O         0.115393        -0.390397         0.186421
 C        -0.849253         0.425688         0.774118
 C        -1.264559         2.028192         0.740734
 C        -2.284853         1.374780         1.659074
 C        -1.051653         0.471196         2.267391
 O        -3.575056         1.747986         2.081779
 C        -4.486164         1.382023         0.942057
 C        -3.586395         0.702171        -0.253185
 C        -2.482444         0.172720         0.632435
 H         0.973052        -0.066958         0.427117
 H        -0.394840         2.760601         0.995224
 H        -1.637505         2.316295        -0.204009
 H        -0.392132         1.016422         2.912204
 H        -1.261439        -0.453685         2.791644
 H        -5.279295         0.716981         1.352942
 H        -4.996371         2.259624         0.534679
 H        -4.179078         0.016492        -0.837391
 H        -3.262478         1.544765        -0.879275
 H        -2.817742        -0.722728         1.100112
