19
Iteration:  4641
 O         0.220133        -0.295983         0.185940
 C        -0.818550         0.392804         0.777621
 C        -1.258900         1.896473         0.583429
 C        -2.270474         1.238285         1.629367
 C        -1.129185         0.573151         2.380254
 O        -3.503336         1.950154         1.933479
 C        -4.464491         1.431005         0.998708
 C        -3.705782         0.620533        -0.077582
 C        -2.479484         0.032877         0.707119
 H         0.498774         0.052420        -0.725337
 H        -0.627560         2.736352         0.924564
 H        -1.826129         2.062386        -0.397521
 H        -0.525500         1.273413         3.060856
 H        -1.441409        -0.378601         2.893451
 H        -5.307852         0.889631         1.554914
 H        -4.790694         2.413572         0.455675
 H        -4.341421        -0.291068        -0.375964
 H        -3.468064         1.188259        -0.923327
 H        -2.770620        -0.837770         1.271924
