19
Iteration:  4696charge 0 multiplicity 1
 O         0.078025        -0.344171         0.088568
 C        -0.911115         0.427036         0.749112
 C        -1.275125         1.947364         0.627573
 C        -2.250698         1.275088         1.732216
 C        -1.055666         0.632599         2.360599
 O        -3.571792         1.822912         1.989283
 C        -4.440637         1.551401         0.826208
 C        -3.645779         0.526253        -0.063189
 C        -2.403275         0.030569         0.799600
 H         0.980639         0.066905        -0.115230
 H        -0.550692         2.711946         0.996035
 H        -1.692319         2.308819        -0.380946
 H        -0.197788         1.221085         2.818643
 H        -1.308874        -0.246655         3.031273
 H        -5.392285         1.293914         1.355724
 H        -4.670182         2.577890         0.414195
 H        -4.147097        -0.447346        -0.354667
 H        -3.441198         0.905046        -0.990798
 H        -2.561058        -0.943318         1.229199
