19
Iteration:  3417charge 0 multiplicity 1
 O         0.121012        -0.205448         0.092077
 C        -0.914785         0.433831         0.814444
 C        -1.218118         1.949787         0.699598
 C        -2.326924         1.227684         1.736048
 C        -1.053394         0.593857         2.388972
 O        -3.629607         1.661675         2.023761
 C        -4.326959         1.692358         0.817247
 C        -3.611350         0.510153        -0.142050
 C        -2.428733         0.101000         0.715203
 H        -0.301920        -1.109791        -0.143573
 H        -0.483627         2.615509         1.087184
 H        -1.730051         2.237528        -0.200878
 H        -0.311622         1.263741         2.742591
 H        -1.184061        -0.328024         2.976381
 H        -5.407499         1.461367         0.942558
 H        -4.197892         2.695398         0.390188
 H        -4.402667        -0.327323        -0.305474
 H        -3.281044         0.863927        -1.091211
 H        -2.660934        -0.977056         1.034318
