19
Iteration:   499charge 0 multiplicity 1
 O         0.190890        -0.174215         0.243100
 C        -0.997313         0.407788         0.746506
 C        -1.349158         1.985894         0.722730
 C        -2.281883         1.223764         1.645801
 C        -1.056049         0.429829         2.327854
 O        -3.505074         1.675327         2.002472
 C        -4.308973         1.619113         0.823893
 C        -3.682948         0.647209        -0.151428
 C        -2.527932         0.019663         0.732178
 H         0.522602         0.543051        -0.398558
 H        -0.660518         2.583987         1.377243
 H        -1.548574         2.328345        -0.259511
 H        -0.181019         0.945176         2.821265
 H        -1.231662        -0.514297         2.729244
 H        -5.339084         1.428004         1.191336
 H        -4.364936         2.591315         0.310629
 H        -4.232924        -0.331280        -0.416615
 H        -3.374915         1.078786        -1.101393
 H        -2.775493        -0.880095         1.287018
