19
Iteration:  2161
 O         0.107478        -0.232785         0.201046
 C        -0.935777         0.492334         0.827772
 C        -1.202072         1.939963         0.659399
 C        -2.353311         1.210311         1.731370
 C        -1.055725         0.453553         2.353280
 O        -3.536403         1.726078         2.077309
 C        -4.372697         1.585542         0.856031
 C        -3.593348         0.609607        -0.252708
 C        -2.481491         0.104102         0.674845
 H         0.067313        -0.270112        -0.803282
 H        -0.454441         2.651191         1.131252
 H        -1.624021         2.298714        -0.350040
 H        -0.121049         0.884266         2.865764
 H        -1.161504        -0.488217         2.792377
 H        -5.283484         1.012184         1.072033
 H        -4.581324         2.593108         0.477805
 H        -4.328430        -0.147459        -0.442614
 H        -3.461794         1.367188        -1.007642
 H        -2.916867        -0.744400         1.255343
