19
Iteration:   412charge 0 multiplicity 1
 O         0.171853        -0.275559         0.084869
 C        -0.865034         0.381640         0.821573
 C        -1.296351         1.910758         0.739773
 C        -2.301772         1.253451         1.675624
 C        -1.107561         0.496345         2.389709
 O        -3.607011         1.800940         2.049342
 C        -4.418201         1.370999         0.923239
 C        -3.528694         0.903182        -0.297846
 C        -2.464959         0.145128         0.675126
 H         0.305681        -1.138829         0.646355
 H        -0.644456         2.701688         1.122752
 H        -1.716186         2.182854        -0.164363
 H        -0.325335         1.161505         2.762374
 H        -1.347669        -0.406624         2.879499
 H        -4.989699         0.476818         1.247831
 H        -5.157182         2.133282         0.731191
 H        -4.051529         0.037874        -0.828827
 H        -3.140604         1.551997        -1.081002
 H        -2.840884        -0.840938         1.043226
