19
Iteration:  4979
 O         0.148282        -0.268518         0.170998
 C        -0.960199         0.359094         0.747596
 C        -1.248845         1.885323         0.569676
 C        -2.267142         1.286140         1.618036
 C        -1.111349         0.665273         2.437590
 O        -3.509854         1.854716         2.045468
 C        -4.395783         1.407370         0.993474
 C        -3.623180         0.671325        -0.146696
 C        -2.485513         0.013720         0.712675
 H         0.014930        -0.292121        -0.850197
 H        -0.375266         2.387627         0.944510
 H        -1.678113         2.103774        -0.360849
 H        -0.277115         1.283834         2.576458
 H        -1.150659        -0.155718         3.148363
 H        -5.324365         0.844985         1.468168
 H        -4.728952         2.386487         0.424517
 H        -4.151120        -0.055974        -0.878922
 H        -3.245354         1.375153        -0.787626
 H        -2.855834        -0.919266         1.307546
