19
Iteration:   331
 O         0.132891        -0.205753         0.152603
 C        -0.935299         0.424832         0.828068
 C        -1.208453         1.878599         0.809648
 C        -2.330500         1.195205         1.665986
 C        -1.161645         0.410702         2.363381
 O        -3.513023         1.871447         1.952134
 C        -4.417843         1.444088         0.890158
 C        -3.544883         0.760703        -0.185692
 C        -2.465410         0.051153         0.630924
 H         0.054615         0.303777        -0.735677
 H        -0.364424         2.379278         1.361462
 H        -1.586720         2.514520        -0.058111
 H        -0.619356         0.986576         3.102043
 H        -1.270376        -0.595284         2.859554
 H        -4.953359         0.688128         1.466106
 H        -5.152955         2.249219         0.519229
 H        -4.162857         0.050662        -0.783428
 H        -3.086044         1.482506        -0.923050
 H        -2.669148        -0.897243         1.121783
