19
Iteration:  4172
 O         0.119120        -0.277646         0.046804
 C        -0.901450         0.415591         0.780750
 C        -1.276940         1.953913         0.611477
 C        -2.255203         1.316376         1.643004
 C        -1.146118         0.630486         2.486190
 O        -3.503100         1.915323         1.888450
 C        -4.434403         1.317271         0.988333
 C        -3.548739         0.591204        -0.126160
 C        -2.446524         0.101086         0.780958
 H        -0.180416        -1.115995        -0.275561
 H        -0.478789         2.633471         1.003891
 H        -1.779272         2.319067        -0.285753
 H        -0.357782         1.199231         3.045492
 H        -1.474487        -0.176058         3.153339
 H        -5.007067         0.554999         1.575193
 H        -5.156672         2.033698         0.487800
 H        -4.173938        -0.234920        -0.583978
 H        -3.039066         1.196323        -0.907689
 H        -2.753342        -0.717185         1.476092
