19
Iteration:    81
 O         0.184123        -0.324930         0.188193
 C        -0.868923         0.420070         0.806350
 C        -1.103402         1.981751         0.962363
 C        -2.315704         1.280804         1.592124
 C        -1.267978         0.326894         2.259926
 O        -3.502261         1.867969         1.929004
 C        -4.499478         1.333497         1.014192
 C        -3.673446         0.768143        -0.266926
 C        -2.459347         0.250597         0.495059
 H         1.024738         0.032246         0.456508
 H        -0.427811         2.488313         1.737971
 H        -1.170946         2.563528         0.048461
 H        -0.495505         0.780177         2.966688
 H        -1.532051        -0.618810         2.653710
 H        -5.006743         0.550440         1.556150
 H        -5.209978         2.175860         0.843447
 H        -4.259202        -0.054257        -0.747913
 H        -3.471058         1.594396        -1.052108
 H        -2.765615        -0.743999         0.930126
