19
Iteration:  3103
 O         0.053726        -0.311919         0.051931
 C        -0.959396         0.426707         0.778699
 C        -1.179955         1.955851         0.721133
 C        -2.309441         1.345198         1.677756
 C        -1.169220         0.625028         2.324512
 O        -3.537447         1.872096         2.025815
 C        -4.405588         1.299392         0.870346
 C        -3.458666         0.678152        -0.139200
 C        -2.453239         0.088079         0.739194
 H         0.156197        -1.136469         0.483353
 H        -0.311005         2.574910         1.076457
 H        -1.625602         2.390738        -0.244533
 H        -0.372995         1.122906         2.809398
 H        -1.487051        -0.297585         2.885894
 H        -4.904814         0.458864         1.462840
 H        -5.071765         2.243044         0.665508
 H        -4.088489        -0.036488        -0.713892
 H        -3.242355         1.431832        -0.871800
 H        -2.749993        -0.930940         1.162995
