19
Iteration:  2833
 O         0.003420        -0.296482         0.065599
 C        -0.926871         0.480331         0.729185
 C        -1.384005         1.988632         0.704208
 C        -2.282345         1.257130         1.739250
 C        -1.106687         0.523269         2.366233
 O        -3.513665         1.725225         2.091744
 C        -4.327417         1.592471         0.789551
 C        -3.550736         0.549288        -0.187272
 C        -2.388866         0.108554         0.752979
 H         0.887370        -0.315002         0.599792
 H        -0.728132         2.694405         1.046930
 H        -1.613794         2.355866        -0.263880
 H        -0.228392         0.938126         2.885341
 H        -1.230663        -0.528199         2.950629
 H        -5.372658         1.301552         1.197886
 H        -4.410632         2.560472         0.321526
 H        -4.324611        -0.258131        -0.423169
 H        -3.254229         1.038069        -1.136128
 H        -2.626659        -0.848446         1.206907
