19
Iteration:     1charge 0 multiplicity 1
 O         0.069475        -0.250870         0.107382
 C        -0.920010         0.419407         0.794851
 C        -1.218199         1.937860         0.825934
 C        -2.312224         1.221920         1.698751
 C        -1.186735         0.413263         2.377851
 O        -3.550582         1.741511         2.019706
 C        -4.376394         1.518472         0.840213
 C        -3.536465         0.733192        -0.238991
 C        -2.441427         0.125542         0.641039
 H         0.920164         0.138534         0.337758
 H        -0.505696         2.567509         1.365375
 H        -1.536873         2.405595        -0.105902
 H        -0.463324         0.958189         2.990012
 H        -1.462810        -0.548381         2.815840
 H        -5.254809         0.947593         1.160523
 H        -4.715986         2.488365         0.462542
 H        -4.150605        -0.018574        -0.739234
 H        -3.163330         1.414448        -1.005738
 H        -2.739407        -0.847765         1.042579
