19
Iteration:  4145charge 0 multiplicity 1
 O         0.060084        -0.137509         0.050476
 C        -0.909314         0.440503         0.854686
 C        -1.175659         1.933498         0.660227
 C        -2.287889         1.306140         1.687040
 C        -1.074995         0.577608         2.370965
 O        -3.492167         1.961696         1.941668
 C        -4.401469         1.431877         0.858965
 C        -3.669557         0.428534        -0.102103
 C        -2.455710         0.031413         0.758260
 H         0.005040        -1.070520         0.066974
 H        -0.445797         2.503682         1.191616
 H        -1.604598         2.182123        -0.317150
 H        -0.360821         1.113919         2.960655
 H        -1.370764        -0.353138         2.881639
 H        -5.154905         0.843411         1.448655
 H        -4.946558         2.159605         0.290974
 H        -4.350019        -0.449514        -0.188416
 H        -3.213819         0.821536        -1.008607
 H        -2.609523        -0.917579         1.371174
