19
Iteration:  3545charge 0 multiplicity 1
 O         0.062477        -0.436977         0.070485
 C        -0.885061         0.432502         0.800661
 C        -1.221463         2.028450         0.686613
 C        -2.303059         1.300773         1.670045
 C        -1.045859         0.604438         2.348319
 O        -3.532352         1.871022         2.028122
 C        -4.522240         1.324245         0.877357
 C        -3.542856         0.646465        -0.161052
 C        -2.454672         0.127303         0.730738
 H         0.786579        -0.593783         0.635684
 H        -0.644918         2.830537         1.203630
 H        -1.547386         2.592843        -0.262941
 H        -0.422181         1.280747         2.937597
 H        -1.231071        -0.353987         2.880673
 H        -5.306348         0.718588         1.399823
 H        -4.894232         2.212533         0.293620
 H        -4.182326        -0.039849        -0.794118
 H        -3.275317         1.459913        -0.800058
 H        -2.727318        -0.829978         1.126624
