19
Iteration:  3803
 O         0.115056        -0.377106         0.232887
 C        -0.923449         0.492121         0.760508
 C        -1.360168         1.963225         0.663118
 C        -2.353422         1.250736         1.685694
 C        -1.012046         0.666872         2.330676
 O        -3.559840         1.799503         2.069137
 C        -4.335519         1.553221         0.836380
 C        -3.600446         0.491680        -0.121335
 C        -2.383458         0.055046         0.684591
 H         0.259055        -0.315920        -0.757817
 H        -0.834641         2.880568         0.896249
 H        -1.939540         2.084269        -0.272739
 H        -0.248112         1.373822         2.612113
 H        -1.242970        -0.179270         2.885322
 H        -5.106260         1.046340         1.369634
 H        -4.445622         2.554534         0.410851
 H        -4.308644        -0.230233        -0.436005
 H        -3.508386         1.138455        -1.109860
 H        -2.547540        -0.994078         1.140978
