19
Iteration:  3562charge 0 multiplicity 1
 O         0.035608        -0.361365         0.121906
 C        -0.898275         0.438457         0.746600
 C        -1.189101         1.934291         0.700186
 C        -2.266648         1.370346         1.649555
 C        -1.084167         0.543349         2.291995
 O        -3.637229         1.888037         1.937733
 C        -4.490718         1.310775         0.964954
 C        -3.582718         0.730243        -0.131310
 C        -2.357368         0.144421         0.753831
 H         0.570557        -0.740640         0.775777
 H        -0.344396         2.530313         1.027782
 H        -1.458002         2.254857        -0.289580
 H        -0.163170         1.029468         2.757433
 H        -1.333425        -0.373332         2.852409
 H        -5.028646         0.390169         1.288983
 H        -5.334463         1.969283         0.690439
 H        -3.902881        -0.069818        -0.734857
 H        -2.976140         1.545374        -0.685213
 H        -2.648383        -0.820230         1.280312
