19
Iteration:  4080charge 0 multiplicity 1
 O         0.150104        -0.201904         0.184211
 C        -0.926296         0.413028         0.751733
 C        -1.476864         1.899908         0.525243
 C        -2.324426         1.221123         1.606199
 C        -1.085039         0.754767         2.320069
 O        -3.475170         1.625221         2.094954
 C        -4.231649         1.674473         0.830512
 C        -3.652858         0.503534        -0.059679
 C        -2.455118         0.018919         0.741767
 H         0.596117        -0.757521         0.876589
 H        -0.743384         2.648599         0.759103
 H        -2.050450         1.979493        -0.401379
 H        -0.342272         1.352575         2.746268
 H        -1.315595        -0.061881         2.979032
 H        -5.301835         1.569718         1.184894
 H        -3.940110         2.651863         0.459148
 H        -4.551504        -0.267666        -0.358868
 H        -3.348750         1.034254        -1.022790
 H        -2.635708        -0.958692         1.354647
