19
Iteration:   574charge 0 multiplicity 1
 O         0.010510        -0.188163         0.110337
 C        -0.950603         0.452631         0.737677
 C        -1.229941         2.020651         0.760046
 C        -2.273041         1.234508         1.822950
 C        -1.061907         0.389230         2.344075
 O        -3.645045         1.774999         2.057900
 C        -4.321663         1.619568         0.779378
 C        -3.561651         0.423735        -0.189677
 C        -2.424054         0.054682         0.705884
 H         0.490391         0.518152        -0.241984
 H        -0.409167         2.630555         1.345977
 H        -1.680430         2.776613         0.020330
 H        -0.133040         0.945754         2.770624
 H        -1.305545        -0.603046         2.641870
 H        -5.434467         1.597944         0.904610
 H        -3.925831         2.511003         0.188513
 H        -4.307083        -0.405245        -0.434272
 H        -3.304058         0.913969        -1.080604
 H        -2.636999        -0.825982         1.309026
