19
Iteration:  3883charge 0 multiplicity 1
 O         0.169583        -0.174944         0.164430
 C        -0.971768         0.401578         0.776254
 C        -1.282549         1.911847         0.687229
 C        -2.247753         1.320946         1.591167
 C        -1.133876         0.505262         2.330235
 O        -3.413034         1.978707         1.835444
 C        -4.402435         1.280501         1.024536
 C        -3.680795         0.589801        -0.116227
 C        -2.466670         0.081488         0.709733
 H         0.509146        -0.866766         0.815552
 H        -0.536832         2.517296         1.197629
 H        -1.613208         2.364790        -0.204328
 H        -0.366230         1.048190         2.801689
 H        -1.548658        -0.287092         2.937834
 H        -5.191614         0.766134         1.614885
 H        -5.122791         1.986469         0.675621
 H        -4.475348        -0.121590        -0.563505
 H        -3.479485         1.376885        -0.902748
 H        -2.703653        -0.933674         1.216400
