19
Iteration:  4055
 O         0.187866        -0.171342         0.134429
 C        -0.943738         0.421679         0.732547
 C        -1.285849         1.906396         0.532514
 C        -2.372203         1.209583         1.731550
 C        -0.949416         0.714053         2.280194
 O        -3.647498         1.698098         2.089458
 C        -4.315503         1.685308         0.780730
 C        -3.658316         0.418966        -0.071181
 C        -2.512815         0.047879         0.814511
 H         0.415529        -0.961230         0.608334
 H        -0.610687         2.553753         1.073319
 H        -1.703985         2.162837        -0.413826
 H        -0.130528         1.275015         2.752937
 H        -0.987243        -0.270357         2.834579
 H        -5.270246         1.588135         1.072884
 H        -4.102352         2.663142         0.350494
 H        -4.379904        -0.307303        -0.014445
 H        -3.420077         0.696959        -1.091713
 H        -2.671307        -0.876354         1.268394
