19
Iteration:  1515
 O         0.094712        -0.203798         0.030799
 C        -0.951753         0.397064         0.747746
 C        -1.256779         1.880651         0.716803
 C        -2.301062         1.217172         1.726987
 C        -1.171866         0.574860         2.396306
 O        -3.593761         1.698808         2.066077
 C        -4.315582         1.672525         0.823133
 C        -3.550522         0.595056        -0.100570
 C        -2.433741         0.036863         0.665447
 H         0.952998         0.042846         0.471208
 H        -0.606792         2.699718         1.114503
 H        -1.633780         2.163345        -0.224419
 H        -0.381137         1.240141         2.751775
 H        -1.387770        -0.465758         2.835346
 H        -5.216896         1.052515         1.131283
 H        -4.476498         2.694936         0.364325
 H        -4.206615        -0.246985        -0.248236
 H        -3.353869         1.048779        -1.048925
 H        -2.598456        -0.847450         1.225040
