19
Iteration:  4871charge 0 multiplicity 1
 O         0.071787        -0.190760         0.074533
 C        -0.979873         0.371558         0.785304
 C        -1.310476         1.879043         0.536268
 C        -2.213395         1.314408         1.684460
 C        -1.025757         0.651346         2.374754
 O        -3.561459         1.813803         2.072976
 C        -4.353218         1.518915         0.890116
 C        -3.517519         0.546833        -0.127182
 C        -2.533933         0.034333         0.790826
 H         0.029053        -1.207615         0.033898
 H        -0.576615         2.686357         0.829508
 H        -1.661442         2.221084        -0.439479
 H        -0.403768         1.476119         2.834825
 H        -1.214415        -0.275730         3.038554
 H        -5.196736         0.930848         1.214037
 H        -4.663720         2.428014         0.538457
 H        -4.175765        -0.378430        -0.549508
 H        -2.934161         1.024714        -0.887217
 H        -2.821748        -0.867355         1.447317
