19
Iteration:   723
 O         0.127169        -0.223989         0.014991
 C        -0.968705         0.404071         0.804843
 C        -1.172189         1.816637         0.733439
 C        -2.283084         1.280351         1.776043
 C        -1.146547         0.423025         2.434533
 O        -3.567701         1.956677         1.907506
 C        -4.421718         1.290404         0.970223
 C        -3.565954         0.729207        -0.219917
 C        -2.484021         0.201141         0.697738
 H         0.921850         0.181404         0.422298
 H        -0.343232         2.424355         1.023503
 H        -1.685289         2.074038        -0.307990
 H        -0.452707         1.084194         2.931530
 H        -1.318512        -0.586416         2.847746
 H        -4.947965         0.368072         1.260958
 H        -5.241473         1.989603         0.763816
 H        -4.073233        -0.091067        -0.840072
 H        -3.106884         1.558949        -0.931027
 H        -2.864361        -0.660777         1.335090
