19
Iteration:  4635
 O         0.210787        -0.337592         0.206534
 C        -0.790699         0.440128         0.781772
 C        -1.251190         1.952040         0.604339
 C        -2.273788         1.245108         1.595542
 C        -1.116164         0.571351         2.335088
 O        -3.468894         1.918613         1.948775
 C        -4.513058         1.476301         1.018387
 C        -3.696244         0.553327        -0.136579
 C        -2.506995         0.041604         0.762617
 H         0.304156        -0.021213        -0.734625
 H        -0.636826         2.730790         1.083317
 H        -1.556099         2.253788        -0.377334
 H        -0.477870         1.200363         2.895577
 H        -1.422198        -0.307822         2.884784
 H        -5.271725         0.851293         1.447142
 H        -5.042930         2.237923         0.470798
 H        -4.177719        -0.342329        -0.398515
 H        -3.594230         1.409799        -0.968881
 H        -2.869940        -0.871703         1.317119
