19
Iteration:  3134charge 0 multiplicity 1
 O         0.077740        -0.233722         0.056121
 C        -0.860336         0.441781         0.837922
 C        -1.192376         1.976862         0.696056
 C        -2.286605         1.293434         1.690568
 C        -1.078374         0.567373         2.376904
 O        -3.501403         1.735516         2.059582
 C        -4.446518         1.552355         0.739288
 C        -3.677061         0.576222        -0.163875
 C        -2.465980         0.063107         0.743905
 H         0.455299        -0.925992         0.703064
 H        -0.482670         2.718425         1.018377
 H        -1.687019         2.286456        -0.272857
 H        -0.327490         1.161998         2.985533
 H        -1.317559        -0.421196         2.913621
 H        -5.259370         0.887090         1.258880
 H        -4.580351         2.559252         0.441841
 H        -4.339117        -0.283521        -0.391319
 H        -3.458945         1.037793        -1.061390
 H        -2.799042        -0.901049         1.133699
