19
Iteration:  4339charge 0 multiplicity 1
 O         0.103429        -0.248604         0.105274
 C        -0.942458         0.399488         0.770815
 C        -1.312452         1.949196         0.634080
 C        -2.297456         1.312981         1.671817
 C        -1.031299         0.684037         2.315365
 O        -3.701769         1.698204         2.135585
 C        -4.295300         1.591771         0.786704
 C        -3.548653         0.483284        -0.064120
 C        -2.359790         0.065357         0.776989
 H        -0.301027        -0.987364        -0.302068
 H        -0.617777         2.833603         0.874143
 H        -1.911495         2.142397        -0.322996
 H        -0.284434         1.349815         2.819908
 H        -1.242365        -0.254140         2.955506
 H        -5.325605         1.415800         0.999949
 H        -4.033187         2.620645         0.262337
 H        -4.191841        -0.267110        -0.297837
 H        -3.210770         0.859038        -1.073277
 H        -2.524721        -0.943455         1.174084
