19
Iteration:  1226charge 0 multiplicity 1
 O         0.102136        -0.272487         0.132605
 C        -0.962174         0.491501         0.738777
 C        -1.258750         1.931839         0.609691
 C        -2.359881         1.163496         1.816226
 C        -1.053451         0.515842         2.353620
 O        -3.570539         1.696076         2.100275
 C        -4.296239         1.589338         0.761195
 C        -3.582916         0.644237        -0.190018
 C        -2.522350         0.076880         0.776949
 H         0.847919         0.406873         0.220288
 H        -0.504559         2.594395         1.083032
 H        -1.689243         2.336780        -0.258232
 H        -0.392196         1.385519         2.867635
 H        -0.964713        -0.507913         2.665449
 H        -5.317505         1.201925         1.065602
 H        -4.543092         2.638010         0.476432
 H        -4.177827        -0.229475        -0.599336
 H        -3.253055         1.162740        -1.043071
 H        -2.752075        -0.937085         1.039035
