19
Iteration:     8
 O         0.063028        -0.239293         0.096154
 C        -0.932623         0.382542         0.775207
 C        -1.179752         1.967428         0.817960
 C        -2.317986         1.197627         1.746361
 C        -1.204718         0.430980         2.401579
 O        -3.570467         1.762754         1.989679
 C        -4.388439         1.449338         0.810777
 C        -3.531556         0.790524        -0.189375
 C        -2.462658         0.149867         0.637846
 H         0.941107        -0.054831         0.295501
 H        -0.463120         2.561521         1.332435
 H        -1.439752         2.233374        -0.339182
 H        -0.397104         0.949635         2.861566
 H        -1.290517        -0.577134         2.994885
 H        -5.233695         0.761172         1.187377
 H        -4.740136         2.444772         0.545022
 H        -4.098686         0.079997        -0.801787
 H        -2.958277         1.467419        -0.779482
 H        -2.661392        -0.865299         0.958860
