19
Iteration:  4047charge 0 multiplicity 1
 O         0.135799        -0.145548         0.106789
 C        -0.883533         0.488172         0.784232
 C        -1.283852         1.878031         0.583311
 C        -2.367511         1.211459         1.726260
 C        -0.971367         0.624005         2.311996
 O        -3.588841         1.727822         2.044610
 C        -4.318663         1.665644         0.755171
 C        -3.688169         0.407457        -0.052732
 C        -2.472392         0.101587         0.840545
 H         0.324383        -1.003735         0.389209
 H        -0.524318         2.619725         0.818138
 H        -1.733578         2.103880        -0.399857
 H        -0.217321         1.220352         2.743666
 H        -1.124901        -0.291374         2.837947
 H        -5.440174         1.477832         0.905989
 H        -4.344853         2.653754         0.256125
 H        -4.427175        -0.585585         0.052601
 H        -3.507369         0.717631        -1.140065
 H        -2.593982        -0.941346         1.365237
