19
Iteration:  4615charge 0 multiplicity 1
 O         0.102378        -0.328451         0.310439
 C        -0.960474         0.406057         0.712350
 C        -1.118694         2.001028         0.684709
 C        -2.261742         1.401894         1.587846
 C        -1.031810         0.602070         2.254347
 O        -3.518697         1.864192         2.001501
 C        -4.441493         1.330160         0.964807
 C        -3.734536         0.538472        -0.134123
 C        -2.469280         0.129660         0.668598
 H         0.020640        -0.642540        -0.668199
 H        -0.327083         2.584508         1.172525
 H        -1.452363         2.447466        -0.227591
 H        -0.280786         1.233079         2.713608
 H        -1.228100        -0.320835         2.784044
 H        -5.176595         0.665823         1.432521
 H        -4.915946         2.186253         0.591224
 H        -4.413488        -0.288540        -0.417887
 H        -3.310136         1.196173        -0.945224
 H        -2.700537        -0.744662         1.350985
