19
Iteration:  2502
 O         0.101017        -0.187159         0.154101
 C        -0.988464         0.445433         0.775837
 C        -1.245492         1.983344         0.720177
 C        -2.317469         1.207167         1.702789
 C        -1.033521         0.415394         2.359278
 O        -3.520346         1.820745         2.047315
 C        -4.377280         1.562924         0.836914
 C        -3.551934         0.569075        -0.208739
 C        -2.476339         0.074586         0.712689
 H        -0.287333        -0.693848        -0.522449
 H        -0.508786         2.659202         1.181789
 H        -1.857303         2.380416        -0.076809
 H        -0.249965         1.079338         2.909597
 H        -1.221360        -0.494248         2.816042
 H        -5.273515         1.121870         1.381376
 H        -4.546332         2.489776         0.318512
 H        -4.201866        -0.232218        -0.468820
 H        -3.221346         1.205729        -1.156068
 H        -2.696858        -0.948102         1.245735
