19
Iteration:    14charge 0 multiplicity 1
 O         0.048750        -0.263966         0.038509
 C        -0.954755         0.413681         0.802753
 C        -1.130072         1.928122         0.774980
 C        -2.334458         1.191315         1.767919
 C        -1.174414         0.420638         2.453210
 O        -3.595941         1.796640         1.971945
 C        -4.443828         1.361037         0.824591
 C        -3.482851         0.860806        -0.178645
 C        -2.471959         0.137830         0.661632
 H         0.986861        -0.152632         0.473035
 H        -0.337548         2.640495         1.235745
 H        -1.272191         2.263530        -0.148007
 H        -0.305287         1.167020         2.757999
 H        -1.325257        -0.428426         2.999922
 H        -5.135977         0.618944         1.105802
 H        -5.036232         2.260200         0.490538
 H        -3.951063         0.310153        -1.021699
 H        -2.905451         1.758255        -0.658089
 H        -2.731005        -0.929246         0.952359
