19
Iteration:  4612
 O         0.087076        -0.326206         0.311410
 C        -0.978920         0.401092         0.687158
 C        -1.109411         2.009903         0.679689
 C        -2.238613         1.401071         1.611333
 C        -1.037321         0.603275         2.256779
 O        -3.533238         1.863400         2.001242
 C        -4.421541         1.311712         0.976636
 C        -3.733665         0.553957        -0.127378
 C        -2.444415         0.122283         0.669891
 H         0.012088        -0.689745        -0.550231
 H        -0.274483         2.594816         1.099527
 H        -1.473865         2.453728        -0.239289
 H        -0.301022         1.218559         2.712680
 H        -1.256006        -0.307109         2.821247
 H        -5.208978         0.650661         1.329114
 H        -4.962853         2.141345         0.453662
 H        -4.318179        -0.298380        -0.350059
 H        -3.416081         1.335793        -1.021113
 H        -2.756510        -0.733934         1.333579
