19
Iteration:  4953
 O         0.167999        -0.312160         0.159614
 C        -0.822189         0.405054         0.775548
 C        -1.241742         1.863726         0.581992
 C        -2.283407         1.284359         1.603251
 C        -1.089581         0.579716         2.341386
 O        -3.515465         1.855541         2.018469
 C        -4.499417         1.491091         0.946865
 C        -3.687928         0.650229        -0.126454
 C        -2.514708         0.063927         0.823749
 H         0.653052         0.311499        -0.482422
 H        -0.526509         2.520503         1.075458
 H        -1.628497         2.061005        -0.456101
 H        -0.213061         1.163194         2.719708
 H        -1.246865        -0.342144         2.882992
 H        -5.316778         0.847731         1.363338
 H        -4.898102         2.498392         0.632354
 H        -4.131618        -0.244970        -0.406867
 H        -3.359761         1.073591        -1.168493
 H        -2.768027        -0.844437         1.274607
