19
Iteration:  4552charge 0 multiplicity 1
 O         0.104367        -0.231238         0.165479
 C        -0.996364         0.362666         0.681916
 C        -1.172598         1.849686         0.664670
 C        -2.228792         1.304397         1.703934
 C        -1.095269         0.644838         2.390560
 O        -3.496583         1.949523         1.892312
 C        -4.498638         1.335709         0.988354
 C        -3.597091         0.607906        -0.140462
 C        -2.456667         0.114701         0.777077
 H         0.095644        -0.934041        -0.532999
 H        -0.372914         2.511052         1.022029
 H        -1.630434         2.148336        -0.320804
 H        -0.445007         1.434015         2.915967
 H        -1.145699        -0.359141         2.885455
 H        -5.075965         0.447737         1.471061
 H        -5.142637         2.207483         0.753545
 H        -4.092315        -0.213308        -0.746003
 H        -3.354608         1.215565        -0.835761
 H        -2.676678        -0.781200         1.305025
