19
Iteration:  2914charge 0 multiplicity 1
 O         0.159298        -0.068181         0.158994
 C        -0.909217         0.437094         0.738460
 C        -1.326972         1.890270         0.701396
 C        -2.286900         1.184631         1.760552
 C        -1.068752         0.501702         2.344075
 O        -3.448865         1.793101         2.052968
 C        -4.353658         1.678481         0.759124
 C        -3.688232         0.455821        -0.092679
 C        -2.527120         0.002536         0.680435
 H         0.053894        -0.958307        -0.282292
 H        -0.516330         2.497480         1.218296
 H        -1.844227         2.310130        -0.179530
 H        -0.293046         1.148298         2.857728
 H        -1.302172        -0.382928         2.850709
 H        -5.399485         1.608475         1.004992
 H        -4.193360         2.600450         0.113942
 H        -4.391924        -0.322695        -0.192931
 H        -3.473739         0.828729        -1.100350
 H        -2.734104        -0.931872         1.261327
