19
Iteration:  3776charge 0 multiplicity 1
 O         0.246215        -0.179418         0.292188
 C        -0.881375         0.408111         0.750820
 C        -1.316353         1.815049         0.561549
 C        -2.307917         1.253247         1.578428
 C        -1.068174         0.601204         2.234867
 O        -3.518694         1.709150         2.057699
 C        -4.364117         1.661299         0.804651
 C        -3.743763         0.505711        -0.016269
 C        -2.535449         0.048048         0.792905
 H         0.553915         0.192514        -0.558028
 H        -0.606423         2.545700         1.045517
 H        -1.731028         2.266761        -0.362190
 H        -0.295628         1.241727         2.836316
 H        -1.376530        -0.423801         2.777790
 H        -5.384799         1.589311         1.225749
 H        -4.053889         2.603523         0.329096
 H        -4.445725        -0.372236        -0.180951
 H        -3.539528         0.937767        -0.942736
 H        -2.815281        -0.778909         1.389452
