19
Iteration:  3372
 O         0.136417        -0.235118         0.049287
 C        -0.937220         0.283808         0.813050
 C        -1.268866         2.003355         0.677823
 C        -2.258129         1.339336         1.665700
 C        -1.164026         0.449964         2.401882
 O        -3.581295         1.885226         1.967587
 C        -4.412997         1.413182         0.972877
 C        -3.529400         0.686370        -0.207924
 C        -2.411226         0.102782         0.707803
 H         0.645611        -1.039513         0.474262
 H        -0.464907         2.605202         1.111909
 H        -1.705811         2.284382        -0.335890
 H        -0.445919         1.039520         2.902179
 H        -1.509886        -0.416046         2.943550
 H        -5.082753         0.748023         1.552982
 H        -5.051271         2.201201         0.506888
 H        -4.033579        -0.197058        -0.816786
 H        -3.202804         1.497980        -0.845639
 H        -2.910705        -0.666783         1.488676
