19
Iteration:  3812charge 0 multiplicity 1
 O         0.010078        -0.347727         0.243410
 C        -0.881557         0.501576         0.771913
 C        -1.360151         1.924748         0.631682
 C        -2.287098         1.272737         1.689424
 C        -1.029643         0.671103         2.309921
 O        -3.537369         1.798288         2.057577
 C        -4.360200         1.462536         0.861351
 C        -3.565631         0.546318        -0.133021
 C        -2.382798         0.079086         0.711686
 H        -0.092081        -0.314162        -0.749841
 H        -0.707035         2.713472         1.072608
 H        -1.769102         2.244638        -0.377101
 H        -0.279588         1.410085         2.792435
 H        -1.125999        -0.304975         2.867378
 H        -5.354300         1.123500         1.112533
 H        -4.635615         2.436016         0.356976
 H        -4.087140        -0.342747        -0.421152
 H        -3.243669         1.054965        -1.065135
 H        -2.527127        -0.933025         1.126875
