19
Iteration:  3854
 O         0.118086        -0.237261         0.023424
 C        -0.918029         0.381463         0.839684
 C        -1.185936         1.899154         0.632772
 C        -2.313695         1.308789         1.668985
 C        -1.091405         0.616366         2.438201
 O        -3.565129         1.952160         1.982891
 C        -4.485388         1.312541         0.920266
 C        -3.517805         0.572436        -0.138591
 C        -2.407070         0.118894         0.767584
 H        -0.307032        -1.038130        -0.224282
 H        -0.371224         2.453076         1.143266
 H        -1.443008         2.373150        -0.374981
 H        -0.465714         1.465270         2.879087
 H        -1.429644        -0.344599         2.958773
 H        -5.209835         0.683257         1.478022
 H        -5.006751         2.184393         0.368917
 H        -4.111626        -0.290537        -0.462910
 H        -3.445759         1.171809        -0.983275
 H        -2.682239        -0.805194         1.203033
