19
Iteration:   532charge 0 multiplicity 1
 O         0.253781        -0.213931         0.131387
 C        -0.940523         0.442981         0.736840
 C        -1.370983         1.859736         0.586331
 C        -2.371027         1.126720         1.682252
 C        -1.141937         0.554337         2.487631
 O        -3.596332         1.609760         2.061540
 C        -4.335617         1.833306         0.912551
 C        -3.605661         0.627268        -0.156695
 C        -2.423832        -0.033981         0.691743
 H         0.701970         0.436104        -0.381624
 H        -0.758990         2.729468         0.994701
 H        -1.661821         2.104786        -0.386631
 H        -0.437804         1.267027         3.006033
 H        -1.253294        -0.373491         2.917770
 H        -5.412294         1.798768         1.217113
 H        -3.998823         2.745968         0.434701
 H        -4.158202        -0.330731        -0.494440
 H        -3.365995         1.208793        -1.042909
 H        -2.565886        -1.061318         1.001956
