19
Iteration:  3877charge 0 multiplicity 1
 O         0.129697        -0.175739         0.112067
 C        -0.912197         0.449217         0.792889
 C        -1.245118         1.904932         0.706791
 C        -2.204899         1.277773         1.628743
 C        -1.141870         0.534594         2.407074
 O        -3.431278         1.947601         1.816207
 C        -4.411269         1.315482         1.004135
 C        -3.707388         0.571031        -0.143736
 C        -2.490351         0.075337         0.743039
 H         0.163165        -0.975971         0.737149
 H        -0.596147         2.709397         1.125895
 H        -1.686771         2.213213        -0.316372
 H        -0.324599         1.256225         2.802632
 H        -1.583673        -0.425250         2.821945
 H        -5.009053         0.555836         1.593864
 H        -5.087229         2.172580         0.636487
 H        -4.437689        -0.008212        -0.641358
 H        -3.363806         1.257690        -0.901570
 H        -2.547097        -0.838684         1.246211
