19
Iteration:  2414charge 0 multiplicity 1
 O         0.181369        -0.316107         0.228466
 C        -0.946580         0.423695         0.743812
 C        -1.239212         1.936367         0.747553
 C        -2.247432         1.316168         1.649536
 C        -1.207513         0.447328         2.303440
 O        -3.483963         1.965486         1.966179
 C        -4.384849         1.367093         1.003080
 C        -3.666059         0.694236        -0.172606
 C        -2.465688         0.071072         0.602031
 H         0.603445         0.041908        -0.513015
 H        -0.536616         2.592323         1.258251
 H        -1.757426         2.248114        -0.145929
 H        -0.330392         0.692550         2.977537
 H        -1.413634        -0.470068         2.633226
 H        -4.948982         0.541217         1.569273
 H        -5.102436         2.075364         0.570543
 H        -4.311878         0.029040        -0.622614
 H        -3.462847         1.558483        -0.744651
 H        -2.668862        -0.968317         1.017115
