19
Iteration:  1568
 O         0.063909        -0.199247         0.024181
 C        -0.894402         0.450393         0.781833
 C        -1.259685         1.958066         0.715215
 C        -2.300165         1.211560         1.692345
 C        -1.094875         0.478489         2.370266
 O        -3.635697         1.720812         2.097235
 C        -4.280466         1.708195         0.684122
 C        -3.600329         0.525520        -0.050728
 C        -2.449030         0.004808         0.769265
 H         0.821518         0.415223        -0.185547
 H        -0.459816         2.338840         1.340142
 H        -1.571799         2.532174        -0.166393
 H        -0.492407         0.959067         3.123510
 H        -1.339798        -0.547768         2.904033
 H        -5.445839         1.486936         0.871774
 H        -4.340346         2.761350         0.274417
 H        -4.216737        -0.373223         0.013234
 H        -3.454537         0.804335        -1.144284
 H        -2.474072        -0.973527         1.112765
