19
Iteration:  1426
 O         0.020317        -0.188446         0.018963
 C        -0.963659         0.432245         0.794439
 C        -1.130207         1.858045         0.737291
 C        -2.295289         1.289390         1.697068
 C        -1.159087         0.506301         2.386919
 O        -3.574014         1.855430         1.954104
 C        -4.409585         1.431617         0.895191
 C        -3.544546         0.617727        -0.117175
 C        -2.426699         0.077721         0.742388
 H         0.834240         0.276726         0.315863
 H        -0.378025         2.348726         1.282911
 H        -1.346475         2.196108        -0.281072
 H        -0.313181         0.938018         2.906999
 H        -1.442605        -0.572230         2.752987
 H        -5.275751         0.821565         1.351114
 H        -4.736560         2.338339         0.270381
 H        -3.976253        -0.264242        -0.428107
 H        -3.253481         1.300888        -0.931991
 H        -2.775669        -0.811367         1.188292
