19
Iteration:  1358charge 0 multiplicity 1
 O         0.117083        -0.361924         0.180249
 C        -0.921439         0.430833         0.703242
 C        -1.117004         2.014255         0.674262
 C        -2.279615         1.323515         1.653825
 C        -1.158674         0.551313         2.322360
 O        -3.494336         1.720379         2.008916
 C        -4.475717         1.348772         0.944126
 C        -3.620915         0.681462        -0.194196
 C        -2.548507         0.201921         0.749088
 H         0.946495         0.234261         0.282302
 H        -0.369519         2.553910         1.192280
 H        -1.461054         2.531148        -0.264497
 H        -0.360926         0.921439         3.041403
 H        -1.374046        -0.491926         2.577947
 H        -5.247320         0.542110         1.306123
 H        -4.956053         2.321279         0.586372
 H        -4.195587        -0.055233        -0.790890
 H        -3.185789         1.485620        -0.838305
 H        -2.963341        -0.612542         1.281623
