19
Iteration:  4395
 O         0.255167        -0.072845         0.085631
 C        -0.963989         0.391928         0.720840
 C        -1.243304         1.866194         0.574835
 C        -2.303425         1.213490         1.730629
 C        -1.135319         0.599972         2.415335
 O        -3.572063         1.803682         2.061319
 C        -4.285608         1.657521         0.782331
 C        -3.720266         0.418845        -0.023616
 C        -2.469721         0.039093         0.779523
 H         0.201212        -1.062140        -0.198873
 H        -0.476285         2.589687         1.075353
 H        -1.729334         2.117937        -0.444004
 H        -0.500747         1.300573         3.009652
 H        -1.421021        -0.482852         2.739028
 H        -5.362725         1.610510         1.089141
 H        -4.279419         2.597445         0.076553
 H        -4.400331        -0.386291         0.060980
 H        -3.664955         0.556421        -1.103702
 H        -2.494421        -0.972455         1.224951
