19
Iteration:  4601
 O         0.099823        -0.372026         0.274325
 C        -0.953423         0.487053         0.707473
 C        -1.177367         1.995349         0.570713
 C        -2.187521         1.352150         1.682552
 C        -1.112576         0.599412         2.322492
 O        -3.544608         1.842838         1.975717
 C        -4.469307         1.303264         0.987035
 C        -3.571526         0.606589        -0.114095
 C        -2.450028         0.186308         0.690236
 H        -0.200710        -0.846609        -0.484486
 H        -0.286312         2.487887         0.981348
 H        -1.569566         2.448287        -0.330225
 H        -0.254411         1.066766         2.721580
 H        -1.424426        -0.273222         2.893410
 H        -5.092472         0.697621         1.659392
 H        -5.058089         2.159615         0.563761
 H        -4.016117        -0.257030        -0.538179
 H        -3.869066         1.230275        -1.170300
 H        -2.708675        -0.805480         1.186835
