19
Iteration:  4608charge 0 multiplicity 1
 O         0.082162        -0.330405         0.312215
 C        -0.987209         0.417041         0.676609
 C        -1.115606         2.013369         0.659807
 C        -2.207889         1.387303         1.641397
 C        -1.063368         0.600141         2.262334
 O        -3.545639         1.858551         1.995490
 C        -4.416049         1.305855         0.982913
 C        -3.691542         0.592375        -0.129686
 C        -2.434123         0.122986         0.679602
 H        -0.034815        -0.794465        -0.577969
 H        -0.243933         2.571216         1.030920
 H        -1.506338         2.482803        -0.301601
 H        -0.232810         1.232627         2.745105
 H        -1.307492        -0.301031         2.876876
 H        -5.246594         0.634727         1.353508
 H        -5.000825         2.087187         0.386326
 H        -4.248456        -0.372567        -0.402203
 H        -3.658235         1.246597        -0.933520
 H        -2.774706        -0.704079         1.265375
