19
Iteration:  3930charge 0 multiplicity 1
 O         0.199080        -0.319572         0.227515
 C        -0.883436         0.374337         0.844077
 C        -1.207718         1.943776         0.582948
 C        -2.177466         1.313119         1.519557
 C        -1.159338         0.666145         2.330942
 O        -3.478039         1.795235         1.958112
 C        -4.521688         1.313037         1.052309
 C        -3.731514         0.692116        -0.123384
 C        -2.492864         0.168578         0.592083
 H         0.694287        -0.708164         1.002292
 H        -0.539085         2.742800         0.900557
 H        -1.567460         2.157409        -0.476166
 H        -0.362869         1.317022         2.786504
 H        -1.262200        -0.343798         2.806215
 H        -5.278332         0.681416         1.518250
 H        -5.253380         2.065237         0.846406
 H        -4.157329        -0.161777        -0.676764
 H        -3.526889         1.433967        -0.842986
 H        -2.852662        -0.649760         1.211778
