19
Iteration:  2423
 O         0.187924        -0.364173         0.253293
 C        -0.969040         0.411932         0.696394
 C        -1.243478         1.975080         0.750763
 C        -2.282487         1.390573         1.706608
 C        -1.194199         0.452805         2.239728
 O        -3.455030         1.883814         1.972714
 C        -4.442561         1.364918         1.027434
 C        -3.634759         0.631151        -0.154130
 C        -2.444606         0.101879         0.562968
 H         0.452268         0.151746        -0.470001
 H        -0.484868         2.583527         1.211698
 H        -1.488729         2.525597        -0.104888
 H        -0.502144         0.982973         2.992077
 H        -1.560692        -0.494642         2.585612
 H        -5.150488         0.805792         1.656559
 H        -5.013027         2.285899         0.699742
 H        -4.304866         0.083764        -0.791261
 H        -3.172028         1.427950        -0.911578
 H        -2.627332        -0.815072         1.194975
