19
Iteration:  4533
 O         0.191869        -0.239357         0.142035
 C        -0.904502         0.436961         0.808340
 C        -1.205417         1.951272         0.606960
 C        -2.281259         1.367061         1.643178
 C        -1.079758         0.486524         2.358179
 O        -3.508963         1.976575         1.923676
 C        -4.436411         1.350409         0.963098
 C        -3.678804         0.517059        -0.067789
 C        -2.492937         0.111241         0.754865
 H        -0.311281        -0.905312        -0.291750
 H        -0.430506         2.578406         1.035159
 H        -1.564584         2.429006        -0.319457
 H        -0.195803         0.859884         2.877198
 H        -1.479403        -0.367506         2.898537
 H        -5.146797         0.669295         1.447573
 H        -5.022771         2.128058         0.379538
 H        -4.299710        -0.291052        -0.478649
 H        -3.412222         1.076076        -1.075247
 H        -2.768783        -0.808331         1.309579
