19
Iteration:  1370charge 0 multiplicity 1
 O         0.031541        -0.326899         0.181691
 C        -0.949468         0.485787         0.774346
 C        -1.141073         2.004558         0.670432
 C        -2.225766         1.305195         1.686860
 C        -1.115875         0.465511         2.369437
 O        -3.559188         1.829085         2.042777
 C        -4.473418         1.320396         0.917580
 C        -3.594335         0.703319        -0.215415
 C        -2.420205         0.089472         0.633703
 H         0.864749         0.072982         0.061028
 H        -0.331207         2.572789         0.952754
 H        -1.633460         2.408858        -0.253803
 H        -0.271751         1.008365         2.880947
 H        -1.504208        -0.468647         2.889902
 H        -5.304798         0.773099         1.495318
 H        -4.980443         2.286515         0.536585
 H        -4.020178        -0.091168        -0.772367
 H        -3.365753         1.489120        -0.968899
 H        -2.636657        -0.784265         1.180358
