19
Iteration:  3528charge 0 multiplicity 1
 O        -0.002781        -0.323240         0.135947
 C        -0.930659         0.442533         0.730315
 C        -1.257628         1.942714         0.708854
 C        -2.255226         1.302688         1.684369
 C        -1.125052         0.624933         2.410524
 O        -3.508317         1.761140         1.995654
 C        -4.339231         1.471353         0.892848
 C        -3.614488         0.602950        -0.221318
 C        -2.437463         0.101943         0.683721
 H         0.875790        -0.156385         0.443721
 H        -0.441555         2.556704         1.101602
 H        -1.666488         2.263023        -0.198945
 H        -0.336192         1.265904         2.840396
 H        -1.370260        -0.264220         3.003929
 H        -5.048928         0.792515         1.380795
 H        -4.772722         2.431309         0.710517
 H        -4.212915        -0.266381        -0.559060
 H        -3.328552         1.085873        -1.213532
 H        -2.672628        -0.789124         1.342486
