19
Iteration:  4509
 O         0.162355        -0.243740         0.141848
 C        -0.884671         0.449947         0.707994
 C        -1.194787         1.967056         0.661290
 C        -2.269448         1.255822         1.613164
 C        -1.154306         0.593695         2.405035
 O        -3.469547         1.886883         1.960345
 C        -4.448691         1.466799         0.970734
 C        -3.697024         0.499908        -0.088261
 C        -2.418546         0.069966         0.681401
 H        -0.217659        -1.163864        -0.049441
 H        -0.447651         2.641001         1.123759
 H        -1.698409         2.430157        -0.213460
 H        -0.471175         1.314768         2.951023
 H        -1.342706        -0.320955         2.991863
 H        -5.268597         0.968662         1.579020
 H        -4.897076         2.200110         0.264771
 H        -4.334477        -0.393689        -0.362081
 H        -3.565720         0.951361        -1.030878
 H        -2.683944        -0.750803         1.324814
