19
Iteration:  4661charge 0 multiplicity 1
 O         0.189228        -0.168611         0.202451
 C        -0.987082         0.330000         0.762328
 C        -1.303724         1.798946         0.527876
 C        -2.264007         1.302471         1.670854
 C        -1.148839         0.554537         2.372883
 O        -3.422149         1.930376         1.998706
 C        -4.413953         1.540644         0.940100
 C        -3.641361         0.534546        -0.142599
 C        -2.507188        -0.000580         0.774372
 H         0.529357         0.626801        -0.331898
 H        -0.472685         2.409954         0.883022
 H        -1.663266         2.034666        -0.502792
 H        -0.212984         1.105181         2.680984
 H        -1.437240        -0.297591         3.004015
 H        -5.058748         0.850415         1.468776
 H        -4.937670         2.336337         0.458616
 H        -4.303721        -0.357721        -0.443388
 H        -3.419944         1.149941        -0.893709
 H        -2.761974        -0.972970         1.227559
