19
Iteration:  3839
 O         0.059150        -0.269256         0.074970
 C        -0.912713         0.410046         0.760704
 C        -1.170435         1.911013         0.701173
 C        -2.246159         1.455031         1.678848
 C        -1.101841         0.667817         2.353915
 O        -3.610561         1.812601         2.004160
 C        -4.379943         1.361260         0.860173
 C        -3.567381         0.530888        -0.112854
 C        -2.449336         0.093137         0.817542
 H        -0.281869        -0.902124        -0.637510
 H        -0.447263         2.643774         1.034314
 H        -1.529593         2.145210        -0.261515
 H        -0.217399         1.047146         2.744017
 H        -1.387201        -0.059443         3.081449
 H        -5.249914         0.754568         1.214129
 H        -4.962355         2.165608         0.470476
 H        -4.088854        -0.285752        -0.702769
 H        -2.986264         1.193282        -0.799783
 H        -2.755992        -0.742787         1.514015
