19
Iteration:  1726charge 0 multiplicity 1
 O         0.052574        -0.321373         0.116246
 C        -0.939129         0.449683         0.840248
 C        -1.200123         1.971506         0.687837
 C        -2.281383         1.300312         1.695010
 C        -1.176616         0.497562         2.375650
 O        -3.472639         1.846345         1.971249
 C        -4.425977         1.306881         0.965338
 C        -3.579755         0.707366        -0.212451
 C        -2.451885         0.102091         0.644524
 H         0.879587         0.089437        -0.126888
 H        -0.413069         2.531240         1.079544
 H        -1.605477         2.411083        -0.259374
 H        -0.393787         1.236518         2.857336
 H        -1.615105        -0.285389         2.921140
 H        -4.988100         0.432829         1.592311
 H        -5.224620         2.188084         0.817447
 H        -4.139858         0.162637        -0.961499
 H        -3.088499         1.496548        -0.703009
 H        -2.697016        -0.894256         1.061869
