19
Iteration:  1625
 O         0.104681        -0.263996         0.124392
 C        -0.936131         0.513869         0.754064
 C        -1.358639         1.946983         0.642842
 C        -2.356675         1.149958         1.719605
 C        -1.075792         0.501930         2.289301
 O        -3.602157         1.701183         2.068216
 C        -4.299243         1.672106         0.847043
 C        -3.595143         0.601785        -0.138261
 C        -2.421956         0.016402         0.811919
 H         0.994818         0.118797         0.261388
 H        -0.617394         2.639221         1.111232
 H        -1.641132         2.288292        -0.296608
 H        -0.311650         1.304673         2.650521
 H        -1.160294        -0.531453         2.823129
 H        -5.411493         1.441108         1.174310
 H        -4.093317         2.701779         0.323609
 H        -4.203203        -0.161069        -0.656765
 H        -3.210414         1.196371        -0.948599
 H        -2.537630        -1.041459         0.998002
