19
Iteration:  4813
 O         0.177691        -0.263483         0.206758
 C        -0.897207         0.417948         0.748259
 C        -1.194286         1.934027         0.571145
 C        -2.252011         1.340093         1.678585
 C        -1.040631         0.568912         2.281513
 O        -3.555314         1.808652         2.099294
 C        -4.413777         1.552341         0.800403
 C        -3.820455         0.421798        -0.018627
 C        -2.472648         0.102622         0.735119
 H         0.523815         0.071790        -0.628392
 H        -0.496979         2.482354         1.120340
 H        -1.492433         2.280641        -0.445973
 H        -0.290208         1.203428         2.752132
 H        -1.201817        -0.307766         2.882119
 H        -5.468548         1.352961         1.101320
 H        -4.412620         2.533377         0.224463
 H        -4.385511        -0.549180        -0.265094
 H        -3.542791         0.689473        -1.050131
 H        -2.761837        -0.736832         1.499192
