19
Iteration:  3919
 O         0.263252        -0.301107         0.238676
 C        -0.809832         0.394797         0.773002
 C        -1.159990         1.920834         0.511083
 C        -2.321612         1.375010         1.583998
 C        -1.090396         0.547230         2.337251
 O        -3.511145         1.853177         1.956936
 C        -4.533689         1.278522         1.031178
 C        -3.810427         0.708688        -0.153119
 C        -2.509111         0.162688         0.688113
 H         0.902122        -0.668109         0.938449
 H        -0.415999         2.593819         0.954281
 H        -1.478673         2.244123        -0.530782
 H        -0.336224         1.124919         2.945833
 H        -1.618192        -0.254493         2.927896
 H        -5.005689         0.525672         1.629787
 H        -4.996555         2.149780         0.645722
 H        -4.411531        -0.123575        -0.586767
 H        -3.687795         1.467232        -0.873912
 H        -2.823218        -0.744797         1.189131
