19
Iteration:  1231charge 0 multiplicity 1
 O         0.087002        -0.281255         0.123393
 C        -0.958305         0.495740         0.721780
 C        -1.238522         1.946166         0.619341
 C        -2.367437         1.161810         1.815476
 C        -1.095237         0.543797         2.374572
 O        -3.542872         1.716990         2.132513
 C        -4.304049         1.552579         0.798022
 C        -3.569802         0.605044        -0.207850
 C        -2.512388         0.097728         0.742363
 H         0.867864         0.288003         0.081655
 H        -0.609307         2.721126         1.056473
 H        -1.783286         2.501259        -0.240064
 H        -0.464201         1.180894         2.818332
 H        -1.116809        -0.517068         2.760196
 H        -5.285883         1.206863         1.022642
 H        -4.416094         2.535031         0.300829
 H        -4.108236        -0.196710        -0.655783
 H        -3.087958         1.201740        -1.067196
 H        -2.822479        -0.939835         1.106819
