19
Iteration:  2882
 O         0.234227        -0.084754         0.030797
 C        -0.904642         0.399438         0.772601
 C        -1.369859         1.835335         0.653367
 C        -2.266598         1.210231         1.722890
 C        -1.132696         0.549621         2.381305
 O        -3.554239         1.691315         2.107895
 C        -4.273493         1.764634         0.773737
 C        -3.646330         0.480098        -0.106427
 C        -2.502576         0.010317         0.731976
 H         0.297691        -0.996899         0.228452
 H        -0.587582         2.678781         0.883482
 H        -1.959544         2.250568        -0.219263
 H        -0.454960         1.133067         3.036226
 H        -1.377423        -0.245444         2.960165
 H        -5.336284         1.758662         0.919262
 H        -4.169972         2.882324         0.414381
 H        -4.420236        -0.265737        -0.172519
 H        -3.381031         0.762567        -1.121467
 H        -2.992362        -0.862715         1.332360
