19
Iteration:  2662charge 0 multiplicity 1
 O         0.130105        -0.272458         0.129108
 C        -0.932130         0.353703         0.758658
 C        -1.227296         1.923744         0.795318
 C        -2.264456         1.227816         1.713415
 C        -1.061541         0.531974         2.336621
 O        -3.517952         1.893114         1.985078
 C        -4.466831         1.514470         0.884076
 C        -3.591717         0.609926        -0.225072
 C        -2.529873         0.045745         0.758752
 H         0.419766         0.304735        -0.560433
 H        -0.462229         2.570023         1.404519
 H        -1.752453         2.467117        -0.018032
 H        -0.277460         1.152592         2.865392
 H        -1.230474        -0.463775         2.678149
 H        -5.098262         0.783002         1.289842
 H        -4.860617         2.485256         0.383896
 H        -4.222350        -0.171504        -0.547224
 H        -3.243459         1.201204        -1.069628
 H        -2.843725        -0.953214         1.123505
