19
Iteration:  3673
 O         0.041906        -0.310906         0.105502
 C        -0.847003         0.447901         0.777980
 C        -1.342481         1.961835         0.642247
 C        -2.246760         1.285616         1.636895
 C        -1.099201         0.711785         2.443631
 O        -3.540300         1.736519         2.053124
 C        -4.378240         1.551794         0.828476
 C        -3.556040         0.567187        -0.139447
 C        -2.395061        -0.017367         0.773357
 H        -0.284122        -0.668347        -0.792794
 H        -0.701765         2.577306         1.217051
 H        -1.644053         2.156598        -0.382456
 H        -0.473698         1.184896         3.276272
 H        -1.415989        -0.319694         2.741402
 H        -5.380211         1.250731         1.136127
 H        -4.678408         2.561977         0.490032
 H        -4.119319        -0.187437        -0.644592
 H        -3.017890         1.188559        -1.044671
 H        -2.592208        -0.864355         1.546835
