19
Iteration:  1349charge 0 multiplicity 1
 O         0.150982        -0.359487         0.164084
 C        -0.910787         0.407230         0.734801
 C        -1.163575         1.930188         0.699908
 C        -2.269594         1.351326         1.600195
 C        -1.158645         0.530585         2.260737
 O        -3.567760         1.727545         2.039549
 C        -4.436877         1.393081         0.944122
 C        -3.632589         0.706159        -0.150896
 C        -2.486904         0.198729         0.691983
 H         0.971574         0.224550         0.400975
 H        -0.573886         2.508888         1.318521
 H        -1.271477         2.490723        -0.266168
 H        -0.540594         1.302492         2.827271
 H        -1.517366        -0.445038         2.880510
 H        -5.058289         0.592818         1.439533
 H        -5.101294         2.294959         0.677120
 H        -4.224734         0.018115        -0.597452
 H        -3.206563         1.426133        -0.882807
 H        -2.766607        -0.721656         1.203451
