19
Iteration:  1051charge 0 multiplicity 1
 O         0.047934        -0.286989         0.126419
 C        -0.882123         0.470958         0.756088
 C        -1.227082         1.999057         0.741292
 C        -2.251066         1.283790         1.642905
 C        -1.122984         0.437655         2.382274
 O        -3.456026         1.799979         2.034400
 C        -4.453821         1.486705         0.866064
 C        -3.650724         0.593412        -0.268643
 C        -2.453041         0.115100         0.740596
 H         0.882183         0.131715         0.370778
 H        -0.472020         2.646561         1.335400
 H        -1.577954         2.403336        -0.188960
 H        -0.323855         1.136316         3.013862
 H        -1.456382        -0.486654         2.861649
 H        -5.191058         0.703830         1.244915
 H        -4.985855         2.393592         0.485949
 H        -4.362292        -0.289265        -0.533120
 H        -3.354866         1.079985        -1.166627
 H        -2.801055        -0.771513         1.306683
