19
Iteration:  3476
 O         0.280871        -0.156114         0.171758
 C        -0.959427         0.324993         0.804936
 C        -1.391437         1.894068         0.707327
 C        -2.298082         1.149548         1.677014
 C        -1.021694         0.506972         2.346494
 O        -3.552171         1.786547         2.038606
 C        -4.279664         1.724007         0.671383
 C        -3.714733         0.573100        -0.054850
 C        -2.563455        -0.007744         0.773393
 H         0.066311         0.170827        -0.740674
 H        -0.682680         2.627534         1.143762
 H        -1.766984         2.369344        -0.210254
 H        -0.233309         1.292667         2.747837
 H        -0.990785        -0.439952         2.966309
 H        -5.334290         1.536626         1.031134
 H        -4.092721         2.797142         0.324449
 H        -4.351682        -0.272059        -0.083682
 H        -3.490096         0.654868        -1.202609
 H        -2.702201        -1.011091         1.191837
