19
Iteration:  1658charge 0 multiplicity 1
 O         0.042230        -0.254285         0.050430
 C        -0.899987         0.446801         0.752438
 C        -1.175306         1.975943         0.748769
 C        -2.333920         1.301211         1.715222
 C        -1.209935         0.511762         2.355822
 O        -3.541637         1.721935         2.022404
 C        -4.334285         1.550740         0.897257
 C        -3.616830         0.561458        -0.173911
 C        -2.387799         0.120747         0.693290
 H         0.953142        -0.120223         0.514521
 H        -0.330765         2.558811         1.204365
 H        -1.425095         2.356843        -0.205954
 H        -0.350384         1.233031         2.803266
 H        -1.422010        -0.460318         2.926407
 H        -5.313526         0.911733         1.222562
 H        -4.860486         2.509896         0.437842
 H        -4.241226        -0.356385        -0.149254
 H        -3.600478         0.961226        -1.182800
 H        -2.589249        -0.903920         1.027246
