19
Iteration:  4006charge 0 multiplicity 1
 O         0.101789        -0.091931        -0.018903
 C        -0.935990         0.454168         0.709360
 C        -1.192118         1.876079         0.700976
 C        -2.291965         1.248009         1.694701
 C        -1.206259         0.619681         2.457732
 O        -3.487184         1.946405         1.976254
 C        -4.351488         1.481963         0.788183
 C        -3.602368         0.356670        -0.081480
 C        -2.440354        -0.001306         0.861774
 H        -0.316578        -0.959380        -0.302232
 H        -0.348918         2.383370         1.199043
 H        -1.688596         2.245388        -0.243739
 H        -0.623479         1.485813         2.877548
 H        -1.214994        -0.167876         3.198617
 H        -5.282961         1.052543         1.424412
 H        -4.664206         2.424844         0.283306
 H        -4.341156        -0.509550        -0.167758
 H        -3.168087         0.734616        -1.000810
 H        -2.596358        -0.974894         1.466553
