19
Iteration:  3248charge 0 multiplicity 1
 O         0.009178        -0.202212         0.009802
 C        -0.929984         0.488818         0.828800
 C        -1.288406         1.939403         0.710726
 C        -2.265841         1.268556         1.732237
 C        -1.078542         0.488711         2.430479
 O        -3.579528         1.804911         2.032863
 C        -4.353719         1.571578         0.808910
 C        -3.564998         0.510386        -0.184080
 C        -2.378636         0.097211         0.749881
 H         0.109046        -1.175780         0.312852
 H        -0.545434         2.726730         1.224805
 H        -1.622856         2.196245        -0.310114
 H        -0.190870         0.884003         2.920848
 H        -1.456590        -0.395989         2.890155
 H        -5.124568         0.942258         1.093705
 H        -4.476002         2.580323         0.363670
 H        -4.057898        -0.316388        -0.680109
 H        -3.363242         1.237207        -1.084500
 H        -2.492601        -0.892356         1.296376
