19
Iteration:  2278
 O         0.141694        -0.137920         0.211477
 C        -0.943784         0.409514         0.779987
 C        -1.321325         1.843227         0.689722
 C        -2.278233         1.184294         1.704286
 C        -1.107247         0.437359         2.352296
 O        -3.537901         1.746158         2.025603
 C        -4.312760         1.724688         0.846468
 C        -3.598549         0.581855        -0.180625
 C        -2.403209         0.045592         0.672681
 H        -0.119569        -0.095062        -0.776136
 H        -0.597114         2.511176         1.049701
 H        -1.919600         2.142560        -0.140938
 H        -0.300239         1.040907         2.880475
 H        -1.402930        -0.454159         2.866639
 H        -5.297897         1.335296         1.143156
 H        -4.438180         2.792875         0.472291
 H        -4.446997        -0.138280        -0.034400
 H        -3.470878         1.069324        -1.221957
 H        -2.740874        -0.860304         1.230686
