19
Iteration:  2125charge 0 multiplicity 1
 O         0.158383        -0.327902         0.202653
 C        -0.917773         0.415798         0.715550
 C        -1.126252         2.031256         0.757153
 C        -2.283900         1.270721         1.627169
 C        -1.211786         0.511691         2.338993
 O        -3.560643         1.812718         2.018861
 C        -4.446869         1.419363         0.986233
 C        -3.586140         0.694433        -0.187374
 C        -2.428525         0.088939         0.627392
 H        -0.101717        -0.494294        -0.741817
 H        -0.435259         2.554971         1.394480
 H        -1.372598         2.601887        -0.108968
 H        -0.314811         1.007141         2.756216
 H        -1.524439        -0.434360         2.735102
 H        -5.141761         0.855287         1.606240
 H        -5.073881         2.298836         0.639201
 H        -4.059486        -0.034304        -0.700601
 H        -3.408491         1.360794        -0.978192
 H        -2.775140        -0.863296         1.111362
