19
Iteration:  3409
 O         0.059366        -0.191062         0.099595
 C        -0.946546         0.452964         0.824660
 C        -1.179974         1.976495         0.653096
 C        -2.370541         1.154896         1.772522
 C        -1.017462         0.567755         2.431174
 O        -3.572664         1.726413         2.034516
 C        -4.373221         1.654173         0.815363
 C        -3.609146         0.496870        -0.197404
 C        -2.452715         0.085469         0.699461
 H        -0.044518        -1.184709        -0.047083
 H        -0.420290         2.623018         1.056885
 H        -1.574233         2.377715        -0.229816
 H        -0.340221         1.389426         2.844358
 H        -0.917385        -0.397778         3.062867
 H        -5.349278         1.239885         1.134898
 H        -4.261759         2.610453         0.292218
 H        -4.303379        -0.173516        -0.623249
 H        -3.232077         0.991769        -1.132615
 H        -2.617223        -0.906451         1.148099
