19
Iteration:  2954
 O         0.047666        -0.181668         0.077395
 C        -0.927194         0.458452         0.773509
 C        -1.187310         1.931571         0.680277
 C        -2.257564         1.244344         1.624983
 C        -1.106319         0.559809         2.415777
 O        -3.568573         1.706891         2.092283
 C        -4.394577         1.568502         0.799473
 C        -3.612915         0.552322        -0.144624
 C        -2.381352         0.111231         0.755929
 H        -0.240408        -1.088588         0.194090
 H        -0.407586         2.612582         1.018261
 H        -1.737485         2.118635        -0.231537
 H        -0.331819         1.204414         2.994031
 H        -1.267985        -0.515735         2.820605
 H        -5.473343         1.405148         1.178174
 H        -4.608875         2.531284         0.339443
 H        -4.123490        -0.335367        -0.554604
 H        -3.148872         1.128196        -1.022683
 H        -2.581298        -0.778169         1.320918
