19
Iteration:  4267
 O         0.189525        -0.108173         0.116649
 C        -0.881150         0.416226         0.811747
 C        -1.256086         1.841390         0.595942
 C        -2.212683         1.246580         1.690788
 C        -1.082258         0.496351         2.351024
 O        -3.479519         1.912206         1.880786
 C        -4.456295         1.406996         0.885518
 C        -3.728307         0.606058        -0.070282
 C        -2.556141         0.090322         0.805933
 H         0.526186        -0.856150         0.562272
 H        -0.456457         2.498875         0.921604
 H        -1.571657         2.167191        -0.367555
 H        -0.382978         1.070524         2.933634
 H        -1.261241        -0.391455         2.937129
 H        -5.055878         0.634201         1.475429
 H        -4.920497         2.222777         0.484870
 H        -4.450120        -0.152376        -0.675886
 H        -3.431004         1.272492        -0.864220
 H        -2.940264        -0.768666         1.413234
