19
Iteration:  3223
 O         0.126212        -0.137232         0.006048
 C        -0.963456         0.472168         0.780160
 C        -1.300654         1.928285         0.740008
 C        -2.289518         1.201368         1.731424
 C        -1.086146         0.554001         2.360965
 O        -3.577786         1.686746         2.042676
 C        -4.210171         1.698967         0.705497
 C        -3.631570         0.474961        -0.086041
 C        -2.519908         0.068655         0.805968
 H         0.116848        -1.120330         0.221288
 H        -0.582267         2.514239         1.333044
 H        -1.648630         2.443958        -0.163149
 H        -0.348198         1.170994         2.866701
 H        -1.210181        -0.431667         2.934241
 H        -5.270963         1.448473         0.899862
 H        -3.982687         2.604838         0.227456
 H        -4.263604        -0.384093        -0.237014
 H        -3.454961         0.796480        -1.085511
 H        -2.778029        -0.814477         1.398991
