19
Iteration:   494charge 0 multiplicity 1
 O         0.171868        -0.178282         0.226165
 C        -0.961854         0.415719         0.734154
 C        -1.330260         1.987692         0.778972
 C        -2.250199         1.207072         1.681043
 C        -1.065499         0.440828         2.320742
 O        -3.518901         1.696894         1.960433
 C        -4.372072         1.648494         0.854511
 C        -3.679160         0.567999        -0.140280
 C        -2.495801         0.062906         0.704703
 H         0.521781         0.384408        -0.474828
 H        -0.577106         2.545300         1.322401
 H        -1.579826         2.351901        -0.304140
 H        -0.267076         0.905810         2.893548
 H        -1.277679        -0.610549         2.782811
 H        -5.390994         1.450388         1.205097
 H        -4.507293         2.644627         0.306473
 H        -4.264291        -0.259757        -0.471388
 H        -3.206837         1.004593        -1.046847
 H        -2.704564        -0.891151         1.235138
