19
Iteration:  4129charge 0 multiplicity 1
 O         0.171217        -0.158406         0.048166
 C        -0.940359         0.391465         0.715522
 C        -1.249766         1.945748         0.713485
 C        -2.258485         1.356736         1.612618
 C        -1.057517         0.547141         2.354134
 O        -3.518071         1.856331         1.927512
 C        -4.423375         1.501770         0.852228
 C        -3.668066         0.408808        -0.066847
 C        -2.537285         0.054166         0.882205
 H         0.406329        -1.032599         0.475770
 H        -0.470748         2.571883         1.305419
 H        -1.519774         2.451421        -0.231997
 H        -0.232438         1.247436         2.773984
 H        -1.226465        -0.331325         3.064108
 H        -5.323048         1.076139         1.262264
 H        -4.581073         2.515848         0.348908
 H        -4.265069        -0.489806        -0.271336
 H        -3.502739         0.869003        -1.051272
 H        -2.779934        -0.710678         1.577305
