19
Iteration:  2394charge 0 multiplicity 1
 O         0.175258        -0.252040         0.189730
 C        -0.923988         0.380722         0.837239
 C        -1.163511         1.854414         0.681170
 C        -2.319659         1.229118         1.693700
 C        -1.111529         0.408906         2.342904
 O        -3.453714         1.921632         1.885066
 C        -4.515153         1.365999         1.041574
 C        -3.623355         0.755632        -0.241445
 C        -2.524156         0.195092         0.641839
 H         0.223034         0.292207        -0.636068
 H        -0.434920         2.509226         1.240013
 H        -1.446681         2.222458        -0.377033
 H        -0.589595         1.063356         3.086915
 H        -1.312434        -0.513702         3.024947
 H        -4.959784         0.496548         1.624934
 H        -5.254260         2.126165         0.931446
 H        -4.207825        -0.058976        -0.654210
 H        -3.251668         1.398774        -0.933309
 H        -2.792468        -0.728941         1.162960
