19
Iteration:  1693charge 0 multiplicity 1
 O         0.091111        -0.281003         0.056936
 C        -0.909049         0.370372         0.809176
 C        -1.271727         1.953970         0.763919
 C        -2.282636         1.298273         1.713252
 C        -1.098851         0.454712         2.325469
 O        -3.539812         1.853095         1.928692
 C        -4.441310         1.411157         0.907784
 C        -3.558283         0.673744        -0.172161
 C        -2.478342         0.114365         0.738913
 H         1.014315         0.139445         0.169140
 H        -0.517464         2.565871         1.191695
 H        -1.642523         2.421900        -0.171193
 H        -0.239389         1.088584         2.865643
 H        -1.375025        -0.340175         3.018504
 H        -5.056107         0.638820         1.489963
 H        -5.044032         2.388095         0.636237
 H        -4.191774        -0.060140        -0.676939
 H        -3.204369         1.338580        -0.907176
 H        -2.749861        -0.859456         1.205172
