19
Iteration:  4085charge 0 multiplicity 1
 O         0.139973        -0.200752         0.174363
 C        -0.936011         0.424919         0.790181
 C        -1.465310         1.874764         0.489149
 C        -2.301054         1.202110         1.636218
 C        -1.091686         0.739473         2.332381
 O        -3.467403         1.639440         2.084844
 C        -4.249505         1.675673         0.861272
 C        -3.635472         0.503552        -0.089659
 C        -2.460847         0.031767         0.740397
 H         0.594940        -0.716017         0.884020
 H        -0.905124         2.844546         0.756621
 H        -1.913044         2.062153        -0.507121
 H        -0.341017         1.455874         2.846845
 H        -1.368924        -0.232011         2.854948
 H        -5.258117         1.556205         1.299675
 H        -4.041531         2.678156         0.388827
 H        -4.398570        -0.220677        -0.294120
 H        -3.415279         0.799389        -1.111883
 H        -2.696634        -0.881742         1.250163
