19
Iteration:  3707charge 0 multiplicity 1
 O         0.044511        -0.265259         0.185394
 C        -0.997612         0.472268         0.703971
 C        -1.306364         1.920798         0.716409
 C        -2.248575         1.263160         1.755304
 C        -0.933636         0.636671         2.338673
 O        -3.639107         1.719501         2.104080
 C        -4.306888         1.622355         0.672638
 C        -3.630446         0.452456        -0.148093
 C        -2.417486         0.090788         0.834626
 H        -0.000383        -0.274711        -0.847911
 H        -0.507714         2.571254         1.037258
 H        -1.672764         2.348914        -0.205756
 H        -0.169876         1.284286         2.838314
 H        -1.075577        -0.443900         2.728685
 H        -5.362678         1.386378         0.876605
 H        -4.057267         2.554800         0.169621
 H        -4.277350        -0.421297        -0.283379
 H        -3.293106         0.877411        -1.170455
 H        -2.647241        -0.858506         1.391021
