19
Iteration:    50charge 0 multiplicity 1
 O        -0.027133        -0.410152         0.075307
 C        -0.920659         0.479662         0.816747
 C        -1.060624         2.101255         0.889092
 C        -2.296844         1.325509         1.696923
 C        -1.309788         0.362558         2.378255
 O        -3.531271         1.817933         1.956390
 C        -4.387509         1.177990         0.927869
 C        -3.518008         0.853335        -0.262504
 C        -2.398232         0.280768         0.545873
 H         0.833731        -0.287554         0.581729
 H        -0.381678         2.643965         1.542757
 H        -1.411021         2.409518        -0.173985
 H        -0.426377         0.846611         2.929990
 H        -1.701442        -0.495044         3.030936
 H        -4.690745         0.209840         1.392758
 H        -5.232572         1.843806         0.716768
 H        -4.084302         0.105350        -0.877438
 H        -3.248927         1.779865        -0.850539
 H        -2.691497        -0.754899         0.918086
