19
Iteration:  3138
 O         0.120965        -0.213174         0.065380
 C        -0.866028         0.418551         0.809377
 C        -1.194214         1.939811         0.688319
 C        -2.296801         1.309064         1.717019
 C        -1.084655         0.545437         2.329929
 O        -3.528701         1.745672         2.061204
 C        -4.400363         1.556225         0.768436
 C        -3.699966         0.577044        -0.156942
 C        -2.472224         0.048728         0.771224
 H         0.418543        -0.813137         0.712648
 H        -0.506249         2.756591         1.166040
 H        -1.706939         2.285354        -0.225500
 H        -0.441825         1.208710         2.811431
 H        -1.278808        -0.351988         2.907135
 H        -5.331500         1.093812         1.115891
 H        -4.622309         2.656881         0.326128
 H        -4.330675        -0.317550        -0.252777
 H        -3.403575         1.017182        -1.194013
 H        -2.762347        -0.995102         1.111160
