19
Iteration:  3575charge 0 multiplicity 1
 O         0.051608        -0.296286         0.126453
 C        -0.973367         0.399728         0.786214
 C        -1.120968         1.933092         0.628604
 C        -2.257479         1.368851         1.661542
 C        -1.073147         0.537133         2.383324
 O        -3.528318         1.903613         1.933967
 C        -4.425077         1.186278         0.994666
 C        -3.552688         0.705869        -0.222460
 C        -2.540989         0.197041         0.704450
 H         0.578226        -0.763843         0.866593
 H        -0.396993         2.509478         1.198860
 H        -1.550968         2.390318        -0.299658
 H        -0.371057         1.178564         3.056382
 H        -1.405622        -0.458398         2.802886
 H        -4.888622         0.384420         1.637881
 H        -5.161486         2.001259         0.670859
 H        -4.213381         0.068994        -0.764591
 H        -3.432868         1.558933        -0.977212
 H        -2.868555        -0.719952         1.229397
