19
Iteration:  3633charge 0 multiplicity 1
 O         0.232702        -0.174887         0.253818
 C        -0.927098         0.395888         0.765924
 C        -1.174250         1.832801         0.705105
 C        -2.263719         1.397189         1.623493
 C        -1.040721         0.445764         2.266263
 O        -3.474009         1.923842         1.953613
 C        -4.536550         1.409941         0.914867
 C        -3.722867         0.586698        -0.191610
 C        -2.517018         0.116213         0.746950
 H         0.050702        -0.974916        -0.169431
 H        -0.479622         2.633061         1.092240
 H        -1.612165         2.264536        -0.245407
 H        -0.243339         0.957062         2.810308
 H        -1.354866        -0.446709         2.883850
 H        -5.132393         0.675089         1.555027
 H        -5.214865         2.240196         0.632224
 H        -4.472877        -0.171225        -0.560964
 H        -3.345840         1.211137        -0.882634
 H        -2.800618        -0.776647         1.227977
