19
Iteration:  2417
 O         0.187785        -0.340197         0.240046
 C        -0.966831         0.419583         0.728094
 C        -1.244468         1.936910         0.763173
 C        -2.257129         1.357029         1.677175
 C        -1.200713         0.475698         2.267331
 O        -3.471792         1.935266         1.966422
 C        -4.399732         1.370174         1.009291
 C        -3.652144         0.673655        -0.168463
 C        -2.456118         0.075854         0.584707
 H         0.595793         0.120905        -0.566680
 H        -0.506515         2.619282         1.281763
 H        -1.733460         2.367740        -0.221902
 H        -0.451490         0.718924         2.986934
 H        -1.476784        -0.647458         2.664415
 H        -5.008964         0.647193         1.633780
 H        -5.055335         2.117295         0.616964
 H        -4.396633         0.023759        -0.731944
 H        -3.364489         1.484743        -0.737271
 H        -2.590858        -0.880574         1.071185
