19
Iteration:  2375charge 0 multiplicity 1
 O         0.160794        -0.249389         0.160381
 C        -0.893907         0.335821         0.749778
 C        -1.108473         1.874138         0.753096
 C        -2.252523         1.303689         1.610345
 C        -1.159992         0.496248         2.397784
 O        -3.548419         1.912047         1.979061
 C        -4.462897         1.309373         0.954139
 C        -3.663527         0.754581        -0.141616
 C        -2.493799         0.089025         0.666467
 H         0.136713         0.083174        -0.804224
 H        -0.273531         2.459424         1.207039
 H        -1.337964         2.436133        -0.191500
 H        -0.293705         0.976788         2.789260
 H        -1.673422        -0.424827         3.048529
 H        -5.155307         0.685491         1.478182
 H        -5.029675         2.149836         0.578077
 H        -4.238563         0.064216        -0.922471
 H        -3.309585         1.591072        -0.852115
 H        -2.861200        -0.782264         1.196934
