19
Iteration:   121charge 0 multiplicity 1
 O         0.116623        -0.141711         0.140602
 C        -0.923266         0.352607         0.814037
 C        -1.215418         1.854737         0.770063
 C        -2.385195         1.117219         1.682597
 C        -1.258362         0.355453         2.317288
 O        -3.510280         1.813465         2.023030
 C        -4.394240         1.542039         0.932562
 C        -3.444249         0.803357        -0.262156
 C        -2.477396         0.092933         0.667576
 H         0.846312         0.570836         0.175062
 H        -0.560575         2.580861         1.303182
 H        -1.546128         2.132686        -0.169136
 H        -0.593165         0.929829         2.992997
 H        -1.540684        -0.638398         2.714068
 H        -5.144267         0.762518         1.210425
 H        -4.842954         2.467709         0.516439
 H        -3.904475         0.084092        -0.869423
 H        -3.073723         1.601547        -0.830210
 H        -2.829990        -0.866398         0.910953
