19
Iteration:   180charge 0 multiplicity 1
 O        -0.036765        -0.196671         0.040723
 C        -0.922332         0.495006         0.830012
 C        -1.230106         2.001041         0.876060
 C        -2.328290         1.210758         1.781975
 C        -1.149818         0.411744         2.411775
 O        -3.670186         1.551965         2.074139
 C        -4.175783         1.729194         0.698545
 C        -3.575106         0.611948        -0.236174
 C        -2.375203         0.075375         0.691226
 H         0.914696         0.170329         0.091620
 H        -0.486718         2.604932         1.350212
 H        -1.422238         2.460323        -0.142487
 H        -0.307628         0.747960         3.049153
 H        -1.501574        -0.645380         2.435725
 H        -5.264039         1.662115         0.721798
 H        -4.010116         2.800560         0.407778
 H        -4.273729        -0.276534        -0.522652
 H        -3.500853         1.186082        -1.252123
 H        -2.433655        -1.027514         1.023081
