19
Iteration:   324charge 0 multiplicity 1
 O         0.134813        -0.181312         0.144184
 C        -0.958654         0.380084         0.806639
 C        -1.222525         1.902085         0.794468
 C        -2.328081         1.211275         1.660439
 C        -1.194667         0.432532         2.330077
 O        -3.521497         1.902892         2.039052
 C        -4.385822         1.401230         0.862758
 C        -3.502651         0.739771        -0.178789
 C        -2.480335         0.051857         0.716258
 H        -0.067480         0.049999        -0.838137
 H        -0.484236         2.332203         1.388147
 H        -1.424241         2.447562        -0.165697
 H        -0.496078         1.054838         2.908337
 H        -1.472302        -0.590712         2.704297
 H        -5.087957         0.596255         1.184285
 H        -4.901898         2.255992         0.357825
 H        -4.033794         0.123885        -1.025496
 H        -2.989063         1.605877        -0.652136
 H        -2.645885        -1.047353         0.949029
