19
Iteration:  3758charge 0 multiplicity 1
 O         0.268567        -0.081292         0.263660
 C        -0.959384         0.375590         0.762836
 C        -1.216826         1.902705         0.467832
 C        -2.278499         1.224959         1.699220
 C        -1.137168         0.505896         2.405485
 O        -3.550767         1.791856         2.061800
 C        -4.289220         1.703724         0.846354
 C        -3.806307         0.445784        -0.059463
 C        -2.526233        -0.048421         0.709585
 H         0.225858         0.302306        -0.622353
 H        -0.381282         2.575177         0.710514
 H        -1.529444         2.018883        -0.622148
 H        -0.399701         1.249249         2.634039
 H        -1.361730        -0.390653         2.869038
 H        -5.284270         1.474369         1.175227
 H        -4.076910         2.716461         0.370267
 H        -4.564370        -0.307877        -0.084594
 H        -3.554161         0.529158        -1.179518
 H        -2.656440        -1.061237         1.208996
