19
Iteration:   482charge 0 multiplicity 1
 O         0.167240        -0.222032         0.149054
 C        -0.862661         0.487628         0.759739
 C        -1.186887         1.924236         0.813421
 C        -2.333353         1.215463         1.719832
 C        -1.134668         0.425765         2.327018
 O        -3.573906         1.809737         2.032891
 C        -4.438592         1.618917         0.821733
 C        -3.636398         0.481214        -0.145414
 C        -2.414603         0.084583         0.657960
 H         0.398929         0.124322        -0.790492
 H        -0.466686         2.648489         1.171561
 H        -1.841675         2.474966         0.049957
 H        -0.489409         1.081739         2.878620
 H        -1.436597        -0.575834         2.800984
 H        -5.370278         1.184693         1.173695
 H        -4.498046         2.624854         0.355610
 H        -4.360679        -0.222284        -0.423377
 H        -3.455190         1.116833        -1.050358
 H        -2.547466        -0.921873         1.112324
