19
Iteration:  3961
 O         0.082989        -0.320688         0.143504
 C        -0.978487         0.469627         0.740064
 C        -1.238869         1.998980         0.560173
 C        -2.285580         1.314413         1.695005
 C        -1.070974         0.660452         2.333696
 O        -3.549587         1.888757         2.064777
 C        -4.403088         1.307975         0.869024
 C        -3.550942         0.605322        -0.133921
 C        -2.462596         0.096913         0.745438
 H         0.254237        -1.101008         0.712138
 H        -0.523237         2.571932         1.105245
 H        -1.675824         2.292247        -0.423870
 H        -0.316840         1.181098         2.897680
 H        -1.117776        -0.356990         2.715459
 H        -5.009302         0.410220         1.388075
 H        -4.898223         2.186178         0.413396
 H        -4.143193        -0.282939        -0.603783
 H        -3.123586         1.305770        -0.857596
 H        -2.760154        -0.931310         1.239307
