19
Iteration:  3829
 O         0.038361        -0.302078         0.138358
 C        -0.982347         0.430342         0.795277
 C        -1.199946         2.053859         0.584370
 C        -2.274249         1.357577         1.660877
 C        -1.025982         0.630635         2.405107
 O        -3.536427         1.728375         1.986576
 C        -4.400835         1.408825         0.828259
 C        -3.513130         0.537709        -0.124010
 C        -2.484519         0.085631         0.873094
 H        -0.351767        -0.612775        -0.704669
 H        -0.364399         2.660206         0.952538
 H        -1.621589         2.480928        -0.305546
 H        -0.321681         1.320820         2.814906
 H        -1.360194        -0.312711         2.849561
 H        -5.180439         0.795567         1.344938
 H        -4.787564         2.354609         0.444008
 H        -4.153584        -0.234673        -0.670943
 H        -3.153330         1.159383        -0.922245
 H        -2.824984        -0.692228         1.562461
