19
Iteration:  3599charge 0 multiplicity 1
 O         0.173091        -0.228431         0.121529
 C        -0.890684         0.385893         0.796582
 C        -1.157525         1.859193         0.714263
 C        -2.274923         1.330950         1.543029
 C        -1.243653         0.550790         2.391755
 O        -3.464606         1.955063         1.920124
 C        -4.463968         1.322747         1.075898
 C        -3.670535         0.663889        -0.178739
 C        -2.421011         0.108942         0.603884
 H         0.279135        -1.010099         0.679399
 H        -0.506826         2.547290         1.299118
 H        -1.530114         2.183930        -0.306016
 H        -0.536382         1.201031         3.014179
 H        -1.677449        -0.383022         2.865096
 H        -4.805415         0.439483         1.727229
 H        -5.288283         2.064158         0.881716
 H        -4.423896        -0.020182        -0.640520
 H        -3.529025         1.344696        -0.982478
 H        -2.504737        -0.853111         1.058468
