19
Iteration:  1809
 O         0.087640        -0.245966         0.004832
 C        -0.923843         0.406552         0.741542
 C        -1.239360         1.895488         0.633250
 C        -2.306570         1.275696         1.723196
 C        -1.123820         0.510821         2.453984
 O        -3.533889         1.859340         2.027874
 C        -4.426803         1.481079         0.949933
 C        -3.543534         0.679474        -0.216151
 C        -2.454890         0.032034         0.719682
 H         0.888818        -0.174752         0.643359
 H        -0.784461         2.610837         1.430974
 H        -1.565097         2.292718        -0.334140
 H        -0.419333         1.161019         3.010386
 H        -1.258584        -0.515910         3.015270
 H        -5.100831         0.684076         1.284465
 H        -4.910863         2.244383         0.389746
 H        -4.152512        -0.199441        -0.629252
 H        -3.141906         1.361157        -1.034441
 H        -2.855115        -0.852058         1.261611
