19
Iteration:   485
 O         0.162100        -0.204225         0.169989
 C        -0.883386         0.466454         0.753759
 C        -1.221659         1.930107         0.816336
 C        -2.298738         1.205160         1.720699
 C        -1.113811         0.428898         2.314609
 O        -3.560004         1.776802         1.998785
 C        -4.441310         1.644595         0.836238
 C        -3.638648         0.477534        -0.135257
 C        -2.431423         0.091173         0.662517
 H         0.467197         0.151796        -0.680252
 H        -0.455529         2.649161         1.162521
 H        -1.855074         2.509595        -0.047234
 H        -0.422881         1.075725         2.902830
 H        -1.438820        -0.580940         2.793973
 H        -5.394909         1.229855         1.204224
 H        -4.482641         2.695913         0.347767
 H        -4.433574        -0.206899        -0.487531
 H        -3.336609         1.080783        -1.009074
 H        -2.593447        -0.901831         1.126229
