19
Iteration:  1382
 O        -0.008089        -0.329067         0.121614
 C        -0.880249         0.416942         0.808054
 C        -1.242556         1.914748         0.731943
 C        -2.315528         1.306677         1.701409
 C        -1.114108         0.508369         2.358889
 O        -3.550701         1.868936         2.001906
 C        -4.405776         1.396200         0.946746
 C        -3.547506         0.650436        -0.168109
 C        -2.367470         0.161203         0.600133
 H         0.796720         0.246855         0.044400
 H        -0.655398         2.620715         1.216530
 H        -1.559640         2.185296        -0.296728
 H        -0.408125         1.129342         2.948764
 H        -1.330188        -0.502562         2.951355
 H        -5.028826         0.524600         1.288919
 H        -5.090594         2.212186         0.502351
 H        -4.185467        -0.011287        -0.593062
 H        -3.245212         1.377860        -0.946002
 H        -2.542051        -0.879224         0.794144
