19
Iteration:  4100charge 0 multiplicity 1
 O         0.125861        -0.190211         0.145553
 C        -0.881849         0.493082         0.761576
 C        -1.327591         1.899849         0.469526
 C        -2.324033         1.239175         1.658155
 C        -1.059829         0.590943         2.368339
 O        -3.554118         1.783261         2.101609
 C        -4.330014         1.642548         0.853087
 C        -3.661165         0.476957        -0.105631
 C        -2.445607        -0.009809         0.751635
 H         0.617146        -0.681121         0.747564
 H        -0.662105         2.642462         0.868058
 H        -1.793697         1.910269        -0.506105
 H        -0.413960         1.297458         2.888534
 H        -1.073953        -0.313034         3.029423
 H        -5.292112         1.255654         1.037481
 H        -4.381882         2.637302         0.411766
 H        -4.328650        -0.347128        -0.045929
 H        -3.561888         0.873017        -1.113470
 H        -2.560100        -0.955120         1.280615
