19
Iteration:  4830charge 0 multiplicity 1
 O         0.188136        -0.340647         0.194048
 C        -0.869130         0.467554         0.745024
 C        -1.245134         1.970518         0.657133
 C        -2.304906         1.311213         1.631039
 C        -0.985776         0.608035         2.329632
 O        -3.571155         1.775785         1.975456
 C        -4.414795         1.590904         0.898732
 C        -3.715571         0.453577        -0.081733
 C        -2.475305         0.094263         0.811466
 H        -0.108293        -0.325370        -0.764770
 H        -0.516367         2.844892         0.807769
 H        -1.783131         2.209984        -0.255932
 H        -0.203917         1.144914         2.920460
 H        -1.115716        -0.360853         2.908739
 H        -5.388537         1.278754         1.286040
 H        -4.597601         2.489101         0.229044
 H        -4.369880        -0.382912        -0.069340
 H        -3.719583         0.856656        -1.152093
 H        -2.598287        -0.874925         1.125110
