19
Iteration:  2457
 O         0.142633        -0.327354         0.185047
 C        -0.866135         0.418075         0.838277
 C        -1.173051         1.941067         0.657295
 C        -2.264161         1.284122         1.717606
 C        -1.089680         0.529773         2.348678
 O        -3.561836         1.739930         2.045125
 C        -4.475578         1.444375         0.937189
 C        -3.690655         0.713864        -0.232900
 C        -2.432836         0.175271         0.652295
 H        -0.011231        -0.166856        -0.741164
 H        -0.311956         2.465812         1.087826
 H        -1.467297         2.140643        -0.312835
 H        -0.348889         1.291732         2.883820
 H        -1.282439        -0.397656         2.874885
 H        -5.285476         0.709088         1.240149
 H        -4.847877         2.445022         0.648486
 H        -4.286936        -0.055285        -0.656555
 H        -3.244797         1.478168        -1.060017
 H        -2.960754        -0.797205         0.975567
