19
Iteration:  3031
 O         0.240071        -0.168471         0.162521
 C        -0.937859         0.360326         0.786913
 C        -1.143215         1.941275         0.736945
 C        -2.231735         1.328168         1.623173
 C        -1.251806         0.465898         2.279252
 O        -3.439469         1.926889         1.950814
 C        -4.462398         1.393747         1.050453
 C        -3.722010         0.545384        -0.210327
 C        -2.508868         0.168332         0.628648
 H         0.201189        -1.077886         0.398554
 H        -0.296920         2.419612         1.290713
 H        -1.424021         2.286067        -0.217812
 H        -0.398154         1.085163         2.848596
 H        -1.573781        -0.466012         2.802072
 H        -5.112538         0.586912         1.810378
 H        -5.148366         2.210797         0.670969
 H        -4.385854        -0.267977        -0.540989
 H        -3.415204         1.142175        -1.200029
 H        -2.815779        -0.679550         1.210960
