19
Iteration:  1058
 O         0.061946        -0.283396         0.158287
 C        -0.937053         0.438180         0.836073
 C        -1.229085         2.051287         0.780169
 C        -2.296848         1.270153         1.587369
 C        -1.022806         0.455396         2.332568
 O        -3.462331         1.768307         1.990371
 C        -4.461882         1.501955         0.847883
 C        -3.676673         0.587547        -0.185389
 C        -2.465699         0.091418         0.701527
 H         0.955794         0.175871         0.253143
 H        -0.537247         2.633820         1.280366
 H        -1.452127         2.312738        -0.277241
 H        -0.323200         0.920689         2.936806
 H        -1.346567        -0.489332         2.863211
 H        -5.305487         0.969733         1.292122
 H        -4.770973         2.466988         0.455944
 H        -4.201572        -0.215248        -0.599318
 H        -3.496030         1.284575        -1.042326
 H        -2.701766        -0.776542         1.288723
