19
Iteration:  4776charge 0 multiplicity 1
 O         0.117528        -0.225697         0.100054
 C        -0.857059         0.408595         0.804129
 C        -1.428942         1.843937         0.569753
 C        -2.278640         1.235025         1.619016
 C        -1.013058         0.588589         2.464111
 O        -3.463284         1.861261         2.058144
 C        -4.342180         1.639859         0.808481
 C        -3.713374         0.466410        -0.066880
 C        -2.484201        -0.037785         0.756024
 H         0.898795         0.419642        -0.009744
 H        -0.875088         2.789928         0.832612
 H        -1.891389         1.938073        -0.399531
 H        -0.436986         1.389524         2.895256
 H        -1.240767        -0.361478         2.965265
 H        -5.349315         1.378825         1.203520
 H        -4.391249         2.647674         0.143070
 H        -4.348646        -0.327452        -0.219450
 H        -3.417568         0.992273        -1.010862
 H        -2.667507        -0.980488         1.251195
