19
Iteration:  1462
 O         0.091014        -0.356539         0.143709
 C        -0.949956         0.457070         0.691796
 C        -1.323006         1.976159         0.738021
 C        -2.271968         1.226224         1.754335
 C        -1.127077         0.574920         2.382688
 O        -3.522014         1.758057         2.007160
 C        -4.391136         1.488511         0.909966
 C        -3.607787         0.648077        -0.173630
 C        -2.373902         0.093351         0.615225
 H         0.976273         0.108397         0.193927
 H        -0.531473         2.684473         1.217151
 H        -1.676887         2.561141        -0.073814
 H        -0.302369         1.136079         2.930365
 H        -1.340640        -0.448492         2.884405
 H        -5.412819         1.242705         1.223458
 H        -4.482775         2.448617         0.365049
 H        -4.177493        -0.227395        -0.552534
 H        -3.639266         1.233561        -1.046984
 H        -2.644533        -0.946840         1.058397
