19
Iteration:  3700
 O         0.009477        -0.273107         0.155943
 C        -0.976558         0.458904         0.731837
 C        -1.275654         1.899431         0.724584
 C        -2.247463         1.307588         1.807251
 C        -1.007912         0.648513         2.298369
 O        -3.643487         1.695461         2.093391
 C        -4.274561         1.556840         0.678041
 C        -3.597178         0.489569        -0.152571
 C        -2.413308         0.133621         0.803759
 H        -0.030825        -0.425975        -0.839045
 H        -0.484720         2.656456         1.016395
 H        -1.728849         2.140560        -0.270602
 H        -0.202991         1.254732         2.751733
 H        -0.964315        -0.214388         3.005787
 H        -5.354045         1.441842         0.922853
 H        -4.204062         2.600189         0.346804
 H        -4.222372        -0.437439        -0.289867
 H        -3.215064         0.840501        -1.007125
 H        -2.607493        -0.754288         1.322841
