19
Iteration:  2867charge 0 multiplicity 1
 O         0.184343        -0.152956         0.014983
 C        -0.968980         0.381891         0.714742
 C        -1.331311         1.911960         0.682949
 C        -2.345319         1.221594         1.722333
 C        -1.073530         0.599946         2.423710
 O        -3.568239         1.642067         2.096551
 C        -4.252660         1.688287         0.754015
 C        -3.691671         0.591164        -0.132951
 C        -2.488078         0.038008         0.807063
 H         0.626026        -0.899990         0.539497
 H        -0.633609         2.520280         1.191827
 H        -1.636224         2.166642        -0.309637
 H        -0.271719         1.335312         2.716497
 H        -1.197239        -0.404510         3.037215
 H        -5.347546         1.642617         0.991812
 H        -3.976762         2.590210         0.197270
 H        -4.401103        -0.231783        -0.306766
 H        -3.381340         0.989692        -1.142625
 H        -2.488526        -0.931699         1.271682
