19
Iteration:   312charge 0 multiplicity 1
 O         0.135613        -0.177099         0.117005
 C        -0.978567         0.384144         0.739497
 C        -1.224203         1.913439         0.795422
 C        -2.319287         1.304155         1.752032
 C        -1.177358         0.432848         2.347808
 O        -3.562385         1.825838         2.067268
 C        -4.400613         1.366876         0.836527
 C        -3.391644         0.739565        -0.220793
 C        -2.500915         0.061601         0.697743
 H        -0.016519        -0.518368        -0.805470
 H        -0.633907         2.617538         1.258931
 H        -1.465758         2.355905        -0.251098
 H        -0.285495         0.779976         2.855965
 H        -1.583557        -0.431718         3.012432
 H        -5.295642         0.876616         1.258402
 H        -4.774378         2.426291         0.544641
 H        -4.033826         0.133827        -1.040935
 H        -2.856475         1.554771        -0.813883
 H        -2.976078        -0.808567         1.294698
