19
Iteration:  3099
 O         0.072876        -0.308510         0.064607
 C        -0.967159         0.424957         0.774759
 C        -1.186274         1.970864         0.717285
 C        -2.314093         1.334003         1.677108
 C        -1.154690         0.619833         2.329951
 O        -3.518243         1.898535         2.038911
 C        -4.418729         1.291839         0.844254
 C        -3.493753         0.704190        -0.149377
 C        -2.470995         0.075299         0.739056
 H         0.185333        -1.261812         0.388295
 H        -0.300205         2.438222         1.076415
 H        -1.560731         2.356301        -0.211401
 H        -0.246617         1.149659         2.851814
 H        -1.484924        -0.309287         2.831710
 H        -4.913761         0.409314         1.413184
 H        -5.257477         1.925877         0.697508
 H        -4.120110         0.006853        -0.700974
 H        -3.064222         1.432572        -0.838621
 H        -2.707599        -0.831386         1.268728
