19
Iteration:   650charge 0 multiplicity 1
 O         0.105792        -0.365912         0.175913
 C        -0.858144         0.404882         0.767790
 C        -1.250797         2.012755         0.724650
 C        -2.296845         1.335280         1.622097
 C        -1.087714         0.474913         2.266293
 O        -3.576786         1.744053         2.080067
 C        -4.463795         1.398088         0.952807
 C        -3.534857         0.706600        -0.226013
 C        -2.493021         0.174384         0.668387
 H         1.037853        -0.011174         0.432050
 H        -0.412839         2.760367         0.924241
 H        -1.686921         2.474038        -0.200144
 H        -0.390804         1.110065         2.989068
 H        -1.290737        -0.458494         2.769170
 H        -5.280248         0.719186         1.299382
 H        -4.994787         2.307564         0.528230
 H        -4.107277        -0.032322        -0.858391
 H        -3.324474         1.544016        -0.799719
 H        -2.857819        -0.757417         1.143808
