19
Iteration:  1434
 O         0.028782        -0.203755         0.030964
 C        -0.860604         0.408163         0.854220
 C        -1.146402         1.922894         0.720468
 C        -2.328128         1.282883         1.687024
 C        -1.169977         0.450117         2.317290
 O        -3.548191         1.835707         1.994838
 C        -4.402101         1.454019         0.888819
 C        -3.546670         0.615457        -0.157293
 C        -2.446247         0.098453         0.773624
 H         0.901822         0.162494         0.154111
 H        -0.406836         2.479322         1.267942
 H        -1.396701         2.336662        -0.323588
 H        -0.531249         1.080825         2.956684
 H        -1.433029        -0.398842         2.847662
 H        -5.307776         0.866097         1.168262
 H        -4.918190         2.345436         0.441391
 H        -4.206488        -0.291682        -0.414111
 H        -3.400695         1.080721        -1.186169
 H        -2.853803        -0.758132         1.297381
