19
Iteration:  4841
 O         0.108535        -0.302119         0.178895
 C        -0.882870         0.456025         0.765463
 C        -1.350024         1.963745         0.609977
 C        -2.244608         1.266003         1.648281
 C        -1.026072         0.614827         2.357853
 O        -3.512307         1.814697         2.005564
 C        -4.387866         1.546293         0.844577
 C        -3.663958         0.524151        -0.014461
 C        -2.431513         0.045754         0.708597
 H        -0.120727        -0.758767        -0.597364
 H        -0.709852         2.717311         1.161774
 H        -1.782020         2.250043        -0.345514
 H        -0.424763         1.426197         2.813725
 H        -1.192753        -0.334537         2.927354
 H        -5.294413         1.084654         1.230006
 H        -4.626200         2.521875         0.394868
 H        -4.220281        -0.367665        -0.168249
 H        -3.385436         0.864319        -1.062160
 H        -2.597918        -0.807881         1.289357
