19
Iteration:  1661
 O         0.031818        -0.241581         0.056978
 C        -0.870819         0.447822         0.749307
 C        -1.157603         1.964774         0.729738
 C        -2.332508         1.280483         1.723614
 C        -1.205008         0.508699         2.357340
 O        -3.538421         1.743584         2.020444
 C        -4.363733         1.526813         0.895017
 C        -3.603691         0.550351        -0.155878
 C        -2.418082         0.132833         0.674261
 H         0.894859        -0.141502         0.466678
 H        -0.388298         2.491910         1.237176
 H        -1.392944         2.481158        -0.247207
 H        -0.379259         1.147634         2.934267
 H        -1.452490        -0.331457         2.949247
 H        -5.241623         1.014123         1.218375
 H        -4.844112         2.451870         0.468970
 H        -4.207981        -0.361841        -0.211172
 H        -3.566764         1.010198        -1.099465
 H        -2.566117        -0.938840         0.993049
