19
Iteration:  1652
 O         0.082703        -0.284157         0.043962
 C        -0.975564         0.455988         0.777861
 C        -1.209257         1.989172         0.798592
 C        -2.274400         1.310821         1.661634
 C        -1.174699         0.517731         2.374554
 O        -3.562067         1.698637         2.054164
 C        -4.351624         1.564714         0.862531
 C        -3.650689         0.583968        -0.191924
 C        -2.354266         0.106003         0.697728
 H         0.907868        -0.083457         0.505957
 H        -0.431863         2.657018         1.135509
 H        -1.616992         2.211894        -0.262619
 H        -0.426079         1.185130         2.672648
 H        -1.296535        -0.445573         2.755652
 H        -5.128643         1.014101         1.185391
 H        -4.591427         2.512787         0.490077
 H        -4.315308        -0.275755        -0.172315
 H        -3.558769         0.872359        -1.268383
 H        -2.653970        -0.825656         1.249076
