19
Iteration:  2462
 O         0.148638        -0.312402         0.170135
 C        -0.868931         0.389611         0.842670
 C        -1.215288         1.979026         0.655404
 C        -2.244209         1.244967         1.677469
 C        -1.105581         0.532698         2.372323
 O        -3.568939         1.754280         2.063299
 C        -4.491500         1.464723         0.956092
 C        -3.622771         0.729253        -0.252626
 C        -2.438648         0.141368         0.672328
 H        -0.066900        -0.302771        -0.824271
 H        -0.250680         2.404451         0.986069
 H        -1.600190         2.237587        -0.401131
 H        -0.391196         1.140590         2.798807
 H        -1.250876        -0.314877         3.107684
 H        -5.356613         0.826404         1.185117
 H        -4.823039         2.447705         0.618070
 H        -4.122832        -0.166939        -0.722213
 H        -3.334696         1.445033        -0.915003
 H        -2.894783        -0.772132         0.993054
