19
Iteration:    89charge 0 multiplicity 1
 O         0.220356        -0.268754         0.179921
 C        -0.862614         0.316112         0.776903
 C        -1.076607         1.992486         0.942012
 C        -2.324073         1.255515         1.600071
 C        -1.240452         0.291718         2.295487
 O        -3.525337         1.887660         1.955461
 C        -4.466522         1.352258         0.955000
 C        -3.705614         0.803733        -0.251761
 C        -2.478519         0.188866         0.540353
 H         0.967167         0.175356         0.486928
 H        -0.473167         2.738151         1.557460
 H        -1.277620         2.495745         0.090807
 H        -0.497791         0.875596         2.863517
 H        -1.730450        -0.513622         2.733842
 H        -5.046390         0.595727         1.520795
 H        -5.221705         2.166124         0.721070
 H        -4.301880         0.074432        -0.757896
 H        -3.545739         1.627838        -0.962109
 H        -2.799112        -0.752432         0.909815
