19
Iteration:  3285charge 0 multiplicity 1
 O         0.167454        -0.166375         0.166155
 C        -0.938986         0.354384         0.810253
 C        -1.164714         1.840964         0.668114
 C        -2.245643         1.309041         1.650336
 C        -1.119235         0.554994         2.390324
 O        -3.490447         1.873383         1.971516
 C        -4.478467         1.332740         0.973036
 C        -3.634634         0.734946        -0.219294
 C        -2.520170         0.094323         0.641289
 H        -0.060103        -1.140550         0.077418
 H        -0.451435         2.421329         1.151584
 H        -1.349310         2.308861        -0.303918
 H        -0.212252         1.034905         2.793351
 H        -1.464389        -0.264182         3.036714
 H        -5.122298         0.649933         1.558555
 H        -5.308448         2.008616         0.711659
 H        -4.186985         0.057823        -0.952024
 H        -3.214122         1.611104        -0.696284
 H        -2.897647        -0.850072         1.083638
