19
Iteration:  1014charge 0 multiplicity 1
 O        -0.014661        -0.247444         0.032574
 C        -0.864276         0.392134         0.846146
 C        -1.155719         1.916186         0.737557
 C        -2.247769         1.289912         1.623361
 C        -1.138631         0.521807         2.406630
 O        -3.522771         1.871885         1.899611
 C        -4.526491         1.289371         0.930344
 C        -3.534586         0.744506        -0.158868
 C        -2.455317         0.077032         0.740373
 H         0.981148        -0.303529         0.205101
 H        -0.633242         2.577967         1.321310
 H        -1.487919         2.349400        -0.259071
 H        -0.448950         1.102587         3.002188
 H        -1.459719        -0.415810         3.025113
 H        -5.089414         0.552597         1.506412
 H        -5.195328         2.128963         0.714900
 H        -4.021979         0.267398        -0.942791
 H        -2.982876         1.571524        -0.704430
 H        -2.658556        -0.796588         1.333645
