19
Iteration:  4789
 O         0.159936        -0.215070         0.156831
 C        -0.960725         0.408743         0.777929
 C        -1.331641         1.894972         0.546236
 C        -2.280375         1.239419         1.688337
 C        -1.170078         0.631556         2.328765
 O        -3.448922         1.803955         1.968187
 C        -4.296013         1.643429         0.923994
 C        -3.728328         0.432424        -0.049040
 C        -2.424888        -0.038085         0.753406
 H         0.689362         0.470513        -0.179409
 H        -0.588808         2.540525         0.997697
 H        -1.765047         2.224053        -0.385922
 H        -0.382608         1.156618         2.817683
 H        -1.361325        -0.207723         2.935862
 H        -5.319166         1.441103         1.343246
 H        -4.393316         2.712561         0.353527
 H        -4.439212        -0.318178        -0.174782
 H        -3.501823         0.697244        -1.149775
 H        -2.670049        -0.897503         1.441242
