19
Iteration:  1828charge 0 multiplicity 1
 O        -0.021806        -0.216505         0.068682
 C        -0.926971         0.403006         0.825665
 C        -1.161746         1.923582         0.739395
 C        -2.277936         1.280773         1.682513
 C        -1.086331         0.557901         2.329560
 O        -3.518123         1.733380         2.026152
 C        -4.383375         1.463164         0.857579
 C        -3.610218         0.631147        -0.167269
 C        -2.460732         0.114355         0.734316
 H         0.941348        -0.081519         0.292872
 H        -0.275659         2.579817         1.096736
 H        -1.636895         2.106892        -0.222142
 H        -0.371245         1.103204         2.834851
 H        -1.422316        -0.342271         3.002696
 H        -5.387467         0.996669         1.084537
 H        -4.831985         2.433053         0.409799
 H        -4.191732        -0.193124        -0.596739
 H        -3.216583         1.320636        -1.003742
 H        -2.749110        -0.885189         1.196734
