19
Iteration:  1704charge 0 multiplicity 1
 O         0.065827        -0.294722         0.101833
 C        -0.984396         0.401940         0.755651
 C        -1.254755         1.865594         0.727016
 C        -2.284699         1.217588         1.694240
 C        -1.054163         0.503657         2.373240
 O        -3.550587         1.933354         1.984786
 C        -4.376190         1.338350         0.945976
 C        -3.527652         0.749491        -0.185325
 C        -2.471828         0.148668         0.689148
 H         0.830160         0.371474         0.166519
 H        -0.626308         2.485766         1.276779
 H        -1.687099         2.362001        -0.174246
 H        -0.211450         1.188625         2.913179
 H        -1.434331        -0.421321         2.778797
 H        -5.109254         0.441832         1.267455
 H        -5.194466         2.120316         0.502645
 H        -4.017598        -0.140581        -0.565682
 H        -3.172841         1.293303        -0.998406
 H        -2.841589        -0.824727         1.080557
