19
Iteration:  4366charge 0 multiplicity 1
 O         0.157079        -0.115597         0.154598
 C        -0.953909         0.413342         0.796402
 C        -1.397903         1.928803         0.599213
 C        -2.306094         1.162277         1.692176
 C        -0.991652         0.656223         2.347880
 O        -3.497712         1.713093         2.035938
 C        -4.258019         1.708719         0.759440
 C        -3.647964         0.461296        -0.109384
 C        -2.510443        -0.034862         0.841079
 H        -0.155746        -0.887691        -0.319904
 H        -0.839343         2.756493         1.032952
 H        -1.965577         2.130728        -0.298012
 H        -0.410681         1.437410         2.897001
 H        -1.129632        -0.314038         2.858902
 H        -5.300154         1.554023         1.211209
 H        -4.173344         2.635148         0.280262
 H        -4.490581        -0.296813        -0.449569
 H        -3.271912         0.682268        -1.105545
 H        -2.677384        -1.008077         1.362330
