19
Iteration:  4719
 O        -0.093543        -0.380209         0.046712
 C        -0.886928         0.499261         0.797430
 C        -1.305927         1.991341         0.626122
 C        -2.265205         1.314160         1.668942
 C        -1.093811         0.673130         2.412612
 O        -3.566149         1.732145         2.089690
 C        -4.240981         1.540614         0.791253
 C        -3.598922         0.421129        -0.102749
 C        -2.383668         0.148827         0.746815
 H         0.851382        -0.371554         0.156579
 H        -0.615747         2.789572         1.027364
 H        -1.625229         2.262440        -0.424359
 H        -0.450259         1.420284         2.946774
 H        -1.017008        -0.324455         2.940639
 H        -5.207614         1.199097         1.238186
 H        -4.485888         2.562203         0.311867
 H        -4.184332        -0.503299        -0.233450
 H        -3.547661         0.835970        -1.066229
 H        -2.529581        -0.770337         1.269251
