19
Iteration:  2697
 O         0.152342        -0.331181         0.187865
 C        -0.920882         0.405365         0.765215
 C        -1.154675         1.913957         0.645152
 C        -2.291384         1.284632         1.643318
 C        -1.202339         0.540937         2.339356
 O        -3.535773         1.852584         2.034561
 C        -4.466556         1.378645         0.997542
 C        -3.537363         0.737691        -0.181470
 C        -2.451916         0.141884         0.684531
 H         0.120596        -0.148252        -0.746151
 H        -0.441327         2.665589         1.018418
 H        -1.603592         2.295064        -0.255935
 H        -0.457930         0.901399         3.187633
 H        -1.478676        -0.469764         2.619186
 H        -5.170076         0.640412         1.426755
 H        -5.304831         2.120686         0.710048
 H        -3.996512        -0.056519        -0.760461
 H        -3.254919         1.495957        -0.961100
 H        -2.634758        -0.825998         1.120203
