19
Iteration:  2904charge 0 multiplicity 1
 O         0.189154        -0.019025         0.140873
 C        -1.007692         0.434608         0.814521
 C        -1.324412         1.854506         0.623455
 C        -2.309696         1.183660         1.684017
 C        -1.090405         0.453291         2.326393
 O        -3.482452         1.792403         2.042771
 C        -4.260673         1.643664         0.769233
 C        -3.723410         0.524270        -0.053344
 C        -2.445089        -0.016667         0.779439
 H        -0.161239        -0.963779        -0.111883
 H        -0.773362         2.742035         1.138457
 H        -1.582359         2.172002        -0.431268
 H        -0.410550         1.068043         2.918654
 H        -1.231683        -0.418638         2.810699
 H        -5.310080         1.735859         0.984906
 H        -4.087739         2.706078         0.351788
 H        -4.325889        -0.350870        -0.206867
 H        -3.480178         0.926712        -1.016051
 H        -2.665919        -1.116546         0.939132
