19
Iteration:  3779charge 0 multiplicity 1
 O         0.252717        -0.216970         0.290235
 C        -0.863271         0.396890         0.737407
 C        -1.361284         1.841958         0.570160
 C        -2.285005         1.262064         1.586193
 C        -1.060953         0.604077         2.264482
 O        -3.520162         1.717696         2.057311
 C        -4.381729         1.645292         0.809516
 C        -3.742729         0.520583        -0.021884
 C        -2.531290         0.051825         0.786677
 H         0.544950         0.196882        -0.594933
 H        -0.637904         2.520842         1.082039
 H        -1.781769         2.364533        -0.353872
 H        -0.338697         1.327022         2.779238
 H        -1.358901        -0.366266         2.687513
 H        -5.367099         1.569042         1.207411
 H        -4.028583         2.610489         0.389281
 H        -4.346589        -0.343866        -0.214105
 H        -3.498431         0.857445        -1.061951
 H        -2.853194        -0.831035         1.371501
