19
Iteration:  4891
 O         0.079791        -0.247379        -0.008680
 C        -0.873735         0.449560         0.805512
 C        -1.223394         1.832693         0.661372
 C        -2.279403         1.343943         1.676212
 C        -1.030253         0.649941         2.368689
 O        -3.555386         1.798451         1.990437
 C        -4.441662         1.473937         0.840449
 C        -3.672447         0.605896        -0.091150
 C        -2.478054         0.072214         0.878204
 H         0.611455        -1.014436         0.405496
 H        -0.425816         2.528713         0.929277
 H        -1.651330         2.044211        -0.332627
 H        -0.180193         1.244719         2.694174
 H        -1.285371        -0.254054         2.936496
 H        -5.386251         1.112252         1.346545
 H        -4.597036         2.461972         0.308426
 H        -4.168114        -0.418561        -0.416790
 H        -3.443529         1.180442        -0.919026
 H        -2.544681        -1.036446         1.299736
