19
Iteration:  3228charge 0 multiplicity 1
 O         0.088482        -0.150077         0.005307
 C        -0.947691         0.475553         0.821390
 C        -1.289352         1.946687         0.735705
 C        -2.273859         1.238794         1.745136
 C        -1.074138         0.515105         2.371228
 O        -3.554578         1.697547         2.053399
 C        -4.256616         1.630226         0.699172
 C        -3.584679         0.494436        -0.097059
 C        -2.546959         0.081235         0.763990
 H         0.105285        -1.086591         0.254045
 H        -0.523827         2.560790         1.288905
 H        -1.767612         2.395200        -0.147181
 H        -0.442948         1.292076         2.853114
 H        -1.217753        -0.430185         2.798706
 H        -5.307781         1.523343         0.974994
 H        -3.985802         2.599440         0.137568
 H        -4.228750        -0.423913        -0.136890
 H        -3.376014         0.846185        -1.172308
 H        -2.782143        -0.820425         1.367646
