19
Iteration:  1084charge 0 multiplicity 1
 O         0.185353        -0.306111         0.128209
 C        -0.940951         0.442866         0.680661
 C        -1.251813         1.909057         0.693591
 C        -2.326432         1.194035         1.724135
 C        -1.134214         0.534220         2.354847
 O        -3.595750         1.779391         2.120963
 C        -4.408390         1.623811         0.796079
 C        -3.598557         0.611684        -0.175683
 C        -2.430855         0.062573         0.727494
 H         0.991760         0.298472         0.012775
 H        -0.406625         2.536242         1.129278
 H        -1.684248         2.320700        -0.185802
 H        -0.380736         1.216805         2.980468
 H        -1.299989        -0.359183         2.952656
 H        -5.337832         1.054082         1.080427
 H        -4.629824         2.652740         0.414245
 H        -4.281681        -0.257277        -0.485189
 H        -3.402423         1.133235        -1.062490
 H        -2.574739        -0.917097         1.200143
