19
Iteration:  4754charge 0 multiplicity 1
 O         0.066152        -0.261510         0.034875
 C        -0.948491         0.402866         0.740159
 C        -1.345659         1.876959         0.575832
 C        -2.329283         1.277994         1.809041
 C        -0.992155         0.641493         2.337448
 O        -3.609914         1.794783         2.040590
 C        -4.287638         1.633775         0.789577
 C        -3.616193         0.479983        -0.073560
 C        -2.448726         0.006957         0.869788
 H         0.903485         0.018113         0.365421
 H        -0.531147         2.560187         0.975871
 H        -1.737870         2.242683        -0.356467
 H        -0.266529         1.412837         2.591385
 H        -1.021151        -0.329399         2.875389
 H        -5.285715         1.213408         1.049106
 H        -4.397320         2.695877         0.201385
 H        -4.116318        -0.384731        -0.238888
 H        -3.119820         0.869425        -1.005089
 H        -2.783475        -0.878237         1.390530
