19
Iteration:  3136
 O         0.098625        -0.223926         0.059661
 C        -0.860146         0.428974         0.826432
 C        -1.190799         1.958713         0.692950
 C        -2.292905         1.304229         1.705421
 C        -1.079977         0.559212         2.352599
 O        -3.512861         1.739063         2.060690
 C        -4.423767         1.554184         0.750101
 C        -3.689955         0.577884        -0.161095
 C        -2.469341         0.053635         0.758839
 H         0.425130        -0.857445         0.711059
 H        -0.482463         2.756909         1.095608
 H        -1.713781         2.291152        -0.262342
 H        -0.401910         1.170881         2.888835
 H        -1.300622        -0.401444         2.919056
 H        -5.307946         0.957871         1.199835
 H        -4.599771         2.638996         0.376728
 H        -4.338711        -0.306224        -0.317714
 H        -3.436517         1.027067        -1.121326
 H        -2.793605        -0.961567         1.112550
