19
Iteration:  3375
 O         0.126576        -0.235719         0.054173
 C        -0.952870         0.300494         0.806950
 C        -1.301907         1.964530         0.693382
 C        -2.278589         1.353565         1.660572
 C        -1.166221         0.474843         2.379803
 O        -3.567404         1.855430         1.969318
 C        -4.378966         1.446474         0.950027
 C        -3.491517         0.673910        -0.190188
 C        -2.430523         0.098440         0.714802
 H         0.619219        -0.996038         0.352840
 H        -0.534298         2.567252         1.067451
 H        -1.701175         2.317233        -0.201470
 H        -0.382556         1.047769         2.896443
 H        -1.514878        -0.434159         3.010305
 H        -5.116827         0.800488         1.481938
 H        -5.065492         2.157092         0.533443
 H        -4.040800        -0.113031        -0.720063
 H        -3.118414         1.443393        -0.811909
 H        -2.747906        -0.649283         1.457155
