19
Iteration:  4983
 O         0.095105        -0.251641         0.182652
 C        -0.950808         0.378107         0.748852
 C        -1.264463         1.875725         0.572725
 C        -2.237991         1.304311         1.628693
 C        -1.126477         0.648269         2.407311
 O        -3.483667         1.852932         2.031234
 C        -4.444239         1.407963         1.005124
 C        -3.601173         0.660253        -0.153914
 C        -2.469059         0.004934         0.727239
 H         0.044652        -0.470441        -0.719472
 H        -0.401324         2.511694         0.964312
 H        -1.639402         2.206722        -0.444534
 H        -0.153434         1.266603         2.640767
 H        -1.225235        -0.235218         3.104138
 H        -5.258359         0.885781         1.342393
 H        -4.711285         2.308085         0.626105
 H        -4.076530        -0.093628        -0.756494
 H        -3.133084         1.389828        -0.950636
 H        -2.763219        -0.946739         1.182522
