19
Iteration:  1344
 O         0.158499        -0.338069         0.159909
 C        -0.907215         0.394762         0.764245
 C        -1.183624         1.912009         0.702529
 C        -2.283602         1.342652         1.582336
 C        -1.159609         0.516175         2.272567
 O        -3.594890         1.763431         2.066656
 C        -4.431378         1.406029         0.957310
 C        -3.619036         0.747513        -0.140876
 C        -2.443921         0.141936         0.624726
 H         0.960537         0.081020         0.383568
 H        -0.481282         2.546846         1.378690
 H        -1.323382         2.369447        -0.263415
 H        -0.522285         1.282557         2.710752
 H        -1.497817        -0.191313         2.924200
 H        -5.139258         0.672621         1.457947
 H        -5.109251         2.201578         0.701435
 H        -4.282715        -0.108853        -0.651767
 H        -3.348959         1.391983        -0.992189
 H        -2.597967        -0.793551         1.202378
