19
Iteration:  2646charge 0 multiplicity 1
 O         0.166998        -0.266233         0.066872
 C        -0.928451         0.430073         0.758011
 C        -1.242897         1.917483         0.741609
 C        -2.350917         1.243457         1.684525
 C        -1.146966         0.433256         2.387534
 O        -3.557881         1.861771         2.015853
 C        -4.377302         1.546101         0.835032
 C        -3.621304         0.579681        -0.093608
 C        -2.446586         0.104897         0.721000
 H         0.624235         0.207021        -0.689138
 H        -0.508485         2.559582         1.207988
 H        -1.464157         2.317639        -0.300522
 H        -0.389832         0.974725         2.940041
 H        -1.357139        -0.458251         3.084645
 H        -5.353777         1.054021         1.285961
 H        -4.595751         2.476684         0.331399
 H        -4.269516        -0.309680        -0.410805
 H        -3.226256         1.202871        -0.936034
 H        -2.498844        -0.817312         1.388859
