19
Iteration:  2589
 O         0.226171        -0.265184         0.182345
 C        -0.905294         0.473953         0.768824
 C        -1.417007         1.906356         0.668794
 C        -2.389697         1.168597         1.726204
 C        -0.971849         0.502485         2.296806
 O        -3.601902         1.677913         2.086626
 C        -4.299025         1.779992         0.806293
 C        -3.651148         0.615763        -0.132842
 C        -2.454531        -0.012507         0.762651
 H         0.367989        -0.209357        -0.753596
 H        -0.712520         2.551242         1.109696
 H        -1.907685         2.333399        -0.182332
 H        -0.260626         1.356207         2.753464
 H        -1.328799        -0.377081         2.761586
 H        -5.423044         1.688465         1.034419
 H        -4.142620         2.768621         0.319647
 H        -4.377973        -0.108280        -0.521455
 H        -3.280728         1.012896        -1.188334
 H        -2.522315        -1.048240         1.249885
