19
Iteration:  1140
 O         0.114930        -0.273800        -0.000071
 C        -0.871714         0.469920         0.774414
 C        -1.242726         1.967980         0.777840
 C        -2.326649         1.177575         1.744370
 C        -1.030277         0.499385         2.404269
 O        -3.633077         1.743944         2.105576
 C        -4.246376         1.644071         0.658009
 C        -3.666092         0.501850        -0.193762
 C        -2.539845         0.082348         0.825670
 H         0.940889         0.164286        -0.048788
 H        -0.775322         2.750300         1.436421
 H        -1.695276         2.557284        -0.023651
 H        -0.378813         1.343962         2.810665
 H        -1.181344        -0.469531         2.838018
 H        -5.293147         1.346288         0.822348
 H        -4.304982         2.691516         0.238447
 H        -4.469269        -0.278575        -0.281488
 H        -3.408175         0.891467        -1.150460
 H        -2.726890        -0.850052         1.415168
