19
Iteration:   360
 O         0.214270        -0.323545         0.163271
 C        -0.871050         0.422771         0.787270
 C        -1.151675         1.973405         0.836888
 C        -2.292549         1.311837         1.664242
 C        -1.201270         0.336486         2.319398
 O        -3.496629         1.880272         2.009658
 C        -4.477313         1.369477         0.899142
 C        -3.755981         0.661624        -0.228776
 C        -2.458931         0.234117         0.557101
 H         0.902934         0.429432         0.132705
 H        -0.379914         2.534775         1.458728
 H        -1.476346         2.510752         0.024784
 H        -0.475218         0.846148         3.036732
 H        -1.610019        -0.561165         2.709781
 H        -5.121652         0.841069         1.605144
 H        -5.046141         2.148556         0.532032
 H        -4.183194        -0.181807        -0.651272
 H        -3.597561         1.372634        -1.006477
 H        -2.650796        -0.769678         0.997766
