19
Iteration:  2467charge 0 multiplicity 1
 O         0.152563        -0.298559         0.160084
 C        -0.895428         0.364679         0.802026
 C        -1.237842         1.967925         0.660815
 C        -2.269881         1.240537         1.635884
 C        -1.109138         0.530115         2.395041
 O        -3.562737         1.757983         2.078287
 C        -4.473424         1.474784         0.945090
 C        -3.560805         0.722485        -0.221450
 C        -2.462675         0.120013         0.671564
 H        -0.100029        -0.389324        -0.730685
 H        -0.361743         2.567948         0.948902
 H        -1.618208         2.316942        -0.247346
 H        -0.259545         1.209214         2.856276
 H        -1.319060        -0.310251         3.123863
 H        -5.379067         0.935774         1.289944
 H        -4.862274         2.449612         0.548726
 H        -4.020930        -0.102522        -0.763310
 H        -3.333576         1.588709        -1.052861
 H        -2.732808        -0.871404         1.187682
