19
Iteration:  3019
 O         0.161238        -0.152487         0.174057
 C        -0.910213         0.387828         0.761035
 C        -1.130652         1.868572         0.699192
 C        -2.281528         1.337711         1.598146
 C        -1.105269         0.425511         2.347799
 O        -3.494733         1.918577         1.954858
 C        -4.476203         1.388141         0.933495
 C        -3.728918         0.648728        -0.114115
 C        -2.464705         0.116836         0.645716
 H         0.404910        -1.087877         0.490916
 H        -0.419491         2.588786         1.157354
 H        -1.400639         2.339831        -0.236350
 H        -0.308104         0.984331         2.933351
 H        -1.442924        -0.490943         2.902048
 H        -5.207552         0.544997         1.493597
 H        -5.092404         2.294167         0.644475
 H        -4.321275        -0.263885        -0.403361
 H        -3.621181         1.357482        -1.043485
 H        -2.743600        -0.794219         1.171017
