19
Iteration:   691
 O         0.078332        -0.326160         0.131415
 C        -0.925609         0.512119         0.797505
 C        -1.136068         1.985042         0.801249
 C        -2.270851         1.292214         1.588591
 C        -1.237485         0.497542         2.322588
 O        -3.470818         1.851010         1.960413
 C        -4.457877         1.275767         1.062028
 C        -3.626188         0.649800        -0.186933
 C        -2.444419         0.147371         0.534223
 H         0.931966        -0.287477         0.538995
 H        -0.447555         2.634256         1.258742
 H        -1.294729         2.491674        -0.239329
 H        -0.679304         1.232075         2.990129
 H        -1.513202        -0.466691         2.755690
 H        -5.095670         0.586724         1.623825
 H        -5.041405         2.160422         0.746559
 H        -4.257179         0.019269        -0.888992
 H        -3.138756         1.469573        -0.852200
 H        -2.667995        -0.760549         1.193070
