19
Iteration:  4955charge 0 multiplicity 1
 O         0.182264        -0.310499         0.147896
 C        -0.822317         0.384329         0.783314
 C        -1.236966         1.851988         0.581890
 C        -2.286766         1.284909         1.621159
 C        -1.085420         0.606911         2.328168
 O        -3.512591         1.845714         2.017287
 C        -4.499528         1.491385         0.941823
 C        -3.678750         0.670246        -0.130965
 C        -2.526224         0.075649         0.831183
 H         0.589997         0.251924        -0.508132
 H        -0.571508         2.489164         1.111270
 H        -1.607664         2.045656        -0.426355
 H        -0.302758         1.207489         2.735583
 H        -1.274533        -0.297547         2.861240
 H        -5.323430         0.753860         1.350086
 H        -4.933577         2.556117         0.643835
 H        -4.184536        -0.272964        -0.419658
 H        -3.344430         1.028952        -1.090141
 H        -2.791542        -0.914179         1.259653
