19
Iteration:  4780
 O         0.127326        -0.217454         0.116150
 C        -0.870293         0.410131         0.803294
 C        -1.424306         1.855433         0.560780
 C        -2.268132         1.252104         1.633898
 C        -1.059442         0.586930         2.438165
 O        -3.448241         1.845229         2.032989
 C        -4.331744         1.671361         0.837594
 C        -3.742230         0.460749        -0.058588
 C        -2.453644        -0.054678         0.736298
 H         0.797510         0.403248        -0.058158
 H        -0.867293         2.704214         0.854573
 H        -1.827411         2.084378        -0.445398
 H        -0.425967         1.320262         2.968101
 H        -1.189244        -0.297855         3.035589
 H        -5.306216         1.354872         1.223654
 H        -4.403678         2.567078         0.248788
 H        -4.343798        -0.481494        -0.287331
 H        -3.381824         0.903506        -1.021324
 H        -2.780795        -0.993720         1.314691
