19
Iteration:  2810charge 0 multiplicity 1
 O         0.068850        -0.316841         0.066839
 C        -0.943480         0.394627         0.776155
 C        -1.231597         1.958642         0.745683
 C        -2.284936         1.276813         1.642213
 C        -1.113416         0.536864         2.352910
 O        -3.548150         1.789158         2.041746
 C        -4.419487         1.520287         0.886338
 C        -3.544881         0.622815        -0.176448
 C        -2.447457         0.090079         0.747723
 H         0.825969         0.245437        -0.045664
 H        -0.526198         2.622752         1.119674
 H        -1.570098         2.450012        -0.175523
 H        -0.502330         1.144345         3.038446
 H        -1.238357        -0.487202         2.981008
 H        -5.355729         0.973725         1.342799
 H        -4.720249         2.414769         0.365928
 H        -4.225657        -0.243202        -0.537359
 H        -3.202649         1.206009        -1.034840
 H        -2.659946        -0.893373         1.146806
