19
Iteration:  1215
 O         0.106734        -0.201893         0.157779
 C        -0.949863         0.389703         0.799363
 C        -1.323226         1.888217         0.673465
 C        -2.306172         1.167860         1.703173
 C        -0.968484         0.521718         2.291837
 O        -3.641843         1.664171         2.035359
 C        -4.380653         1.691644         0.803190
 C        -3.601123         0.691110        -0.148679
 C        -2.444155         0.026987         0.742074
 H         0.956837         0.321610         0.324820
 H        -0.492888         2.524840         1.040941
 H        -1.574685         2.098088        -0.311252
 H        -0.124288         1.188234         2.851569
 H        -1.052950        -0.345611         2.928607
 H        -5.366697         1.193986         1.053850
 H        -4.429278         2.749950         0.440046
 H        -4.449072        -0.031459        -0.316062
 H        -3.277023         1.085381        -1.059182
 H        -2.617264        -0.919678         1.218357
