19
Iteration:  4525
 O         0.177310        -0.254783         0.128289
 C        -0.874518         0.390134         0.865361
 C        -1.248654         1.996956         0.671845
 C        -2.297776         1.400092         1.602709
 C        -1.112234         0.516598         2.283294
 O        -3.471601         1.943034         1.907311
 C        -4.479444         1.415950         0.983315
 C        -3.660441         0.456018        -0.054438
 C        -2.450780         0.108897         0.726087
 H        -0.151559        -1.055881        -0.308398
 H        -0.687075         2.680888         1.336257
 H        -1.497126         2.097803        -0.383788
 H        -0.322610         1.011164         2.791215
 H        -1.595401        -0.363032         2.704065
 H        -5.191134         0.747049         1.415274
 H        -4.845320         2.399708         0.693921
 H        -4.233717        -0.417253        -0.322449
 H        -3.402713         1.180379        -1.072858
 H        -2.533826        -0.899087         1.272084
