19
Iteration:  1420charge 0 multiplicity 1
 O         0.026746        -0.190004         0.020505
 C        -1.030674         0.392764         0.738162
 C        -1.155681         1.855492         0.759265
 C        -2.256014         1.294738         1.701122
 C        -1.137083         0.509230         2.468972
 O        -3.559526         1.874125         1.948470
 C        -4.431512         1.406461         0.856062
 C        -3.549997         0.602314        -0.098624
 C        -2.444168         0.098937         0.707280
 H         0.884160         0.277320         0.317594
 H        -0.311112         2.544242         1.193306
 H        -1.382086         2.303645        -0.218763
 H        -0.222514         0.919162         2.950517
 H        -1.421806        -0.470462         2.804469
 H        -5.166349         0.895338         1.413713
 H        -4.730841         2.303533         0.385330
 H        -4.106078        -0.223506        -0.750707
 H        -3.101172         1.348457        -0.765978
 H        -2.531707        -0.964355         1.209122
