19
Iteration:  3740
 O         0.248493        -0.142769         0.188480
 C        -0.898595         0.406334         0.731578
 C        -1.378129         1.826759         0.649954
 C        -2.314020         1.199679         1.667662
 C        -1.141753         0.573272         2.382990
 O        -3.464723         1.814513         2.043086
 C        -4.274287         1.688061         0.769970
 C        -3.745168         0.451021        -0.026291
 C        -2.454626         0.015481         0.729963
 H         0.256260         0.071568        -0.748528
 H        -0.756844         2.626970         1.032511
 H        -1.889485         2.062433        -0.283990
 H        -0.455021         1.213971         2.995413
 H        -1.454369        -0.425413         2.844623
 H        -5.371736         1.636441         0.987302
 H        -4.229345         2.527064         0.089815
 H        -4.466692        -0.404414        -0.004670
 H        -3.766412         0.757209        -1.146263
 H        -2.580078        -0.943988         1.302150
