19
Iteration:  2644charge 0 multiplicity 1
 O         0.164885        -0.258512         0.062357
 C        -0.937934         0.415145         0.775472
 C        -1.233158         1.935169         0.731428
 C        -2.346453         1.248032         1.669506
 C        -1.158711         0.431404         2.397493
 O        -3.559253         1.850167         2.020757
 C        -4.368855         1.550519         0.832920
 C        -3.635539         0.576107        -0.079277
 C        -2.438920         0.100620         0.715056
 H         0.585384         0.194382        -0.642096
 H        -0.534052         2.574821         1.153136
 H        -1.490033         2.250127        -0.270006
 H        -0.334165         1.015819         3.007738
 H        -1.362748        -0.499026         2.995566
 H        -5.300023         1.058838         1.265941
 H        -4.497689         2.446394         0.247057
 H        -4.250182        -0.288342        -0.392300
 H        -3.263521         1.254594        -0.919909
 H        -2.475858        -0.763067         1.349873
