19
Iteration:  3163charge 0 multiplicity 1
 O         0.251068        -0.040437         0.149435
 C        -0.943720         0.369198         0.736561
 C        -1.371888         1.917043         0.626721
 C        -2.325212         1.229008         1.678500
 C        -1.084324         0.490961         2.341488
 O        -3.510266         1.754652         2.066741
 C        -4.281538         1.765233         0.788701
 C        -3.707370         0.446821        -0.042008
 C        -2.513998        -0.080131         0.717487
 H         0.299684        -0.886691         0.587220
 H        -0.538340         2.554226         0.964257
 H        -1.859915         2.258194        -0.268326
 H        -0.252770         1.056998         2.885243
 H        -1.336184        -0.459573         2.726301
 H        -5.369712         1.777471         0.904933
 H        -4.065291         2.749380         0.208248
 H        -4.409541        -0.376096        -0.270367
 H        -3.369530         1.025612        -0.966552
 H        -2.874230        -0.984049         1.237305
