19
Iteration:  4707charge 0 multiplicity 1
 O        -0.025746        -0.406065         0.053444
 C        -0.866526         0.477992         0.743504
 C        -1.262297         1.944089         0.627712
 C        -2.299499         1.293224         1.701699
 C        -1.011459         0.655426         2.446000
 O        -3.581720         1.803195         2.059848
 C        -4.450685         1.567788         0.868961
 C        -3.572286         0.489492        -0.121420
 C        -2.327121         0.098431         0.704361
 H         0.788464         0.074613         0.173569
 H        -0.546799         2.741355         0.940293
 H        -1.913378         2.200987        -0.285251
 H        -0.326473         1.366865         3.017188
 H        -1.325180        -0.303263         2.975671
 H        -5.457194         1.103785         0.968477
 H        -4.468382         2.490138         0.251517
 H        -4.284550        -0.373785         0.068676
 H        -3.446957         0.677496        -1.105082
 H        -2.488540        -0.856632         1.166280
