19
Iteration:  4349charge 0 multiplicity 1
 O         0.160729        -0.237020         0.122210
 C        -0.933695         0.494297         0.683455
 C        -1.404743         1.917849         0.566969
 C        -2.325526         1.221514         1.774424
 C        -1.062265         0.662396         2.366573
 O        -3.656135         1.729554         2.115108
 C        -4.245946         1.592185         0.779886
 C        -3.545933         0.523526        -0.043138
 C        -2.440272         0.027585         0.808777
 H        -0.169402        -1.027218        -0.343630
 H        -0.564380         2.513910         0.964575
 H        -1.778420         2.279888        -0.421098
 H        -0.275352         1.357592         2.591912
 H        -1.082325        -0.291497         2.908445
 H        -5.285132         1.480526         0.715049
 H        -4.108347         2.594737         0.186722
 H        -4.193510        -0.263423        -0.227905
 H        -3.291043         0.961487        -1.089274
 H        -2.491886        -0.961057         1.321424
