19
Iteration:  4485charge 0 multiplicity 1
 O         0.087661        -0.180739         0.109535
 C        -0.958509         0.372589         0.748705
 C        -1.187039         1.899833         0.566610
 C        -2.299167         1.292791         1.690193
 C        -1.063265         0.668104         2.380017
 O        -3.527850         1.759607         2.067319
 C        -4.405630         1.512176         0.884857
 C        -3.631753         0.570459        -0.170714
 C        -2.467760         0.067560         0.786064
 H         0.286064        -1.096423         0.452515
 H        -0.411571         2.632697         0.977109
 H        -1.439423         2.030725        -0.511227
 H        -0.269828         1.364902         2.808709
 H        -1.279128        -0.238115         3.022838
 H        -5.280084         0.961004         1.388711
 H        -4.762192         2.416178         0.328296
 H        -4.269993        -0.256017        -0.544436
 H        -3.332913         1.015328        -1.000058
 H        -2.704903        -0.890350         1.253823
