19
Iteration:  3412
 O         0.082791        -0.202556         0.094375
 C        -0.938748         0.439929         0.831723
 C        -1.188396         1.969674         0.669614
 C        -2.364028         1.180998         1.763477
 C        -1.027246         0.573505         2.420407
 O        -3.594795         1.699148         2.020665
 C        -4.366639         1.679932         0.827608
 C        -3.610868         0.485318        -0.169970
 C        -2.439477         0.100312         0.700811
 H        -0.125249        -1.088134        -0.087689
 H        -0.376366         2.656587         1.089067
 H        -1.700918         2.350192        -0.277993
 H        -0.308823         1.369417         2.791151
 H        -0.995175        -0.347907         3.016659
 H        -5.354341         1.275009         1.056664
 H        -4.165322         2.652843         0.341001
 H        -4.366444        -0.187059        -0.532475
 H        -3.214791         0.910594        -1.149977
 H        -2.642723        -0.895618         1.029036
