19
Iteration:  1412
 O         0.034735        -0.223486         0.018715
 C        -0.959411         0.367493         0.697783
 C        -1.198381         1.945371         0.764563
 C        -2.237928         1.300059         1.734333
 C        -1.128608         0.479244         2.507056
 O        -3.491453         1.893271         1.952449
 C        -4.434881         1.392285         0.845526
 C        -3.578343         0.581138        -0.157874
 C        -2.478315         0.048702         0.732810
 H         0.885336         0.254924         0.262828
 H        -0.385143         2.522736         1.180712
 H        -1.689557         2.488784        -0.121530
 H        -0.347336         1.092595         3.010396
 H        -1.426389        -0.336260         3.079624
 H        -5.302584         0.810815         1.302617
 H        -5.016491         2.277134         0.446904
 H        -4.210369         0.131782        -1.002507
 H        -3.034730         1.366221        -0.771696
 H        -2.641628        -0.903906         1.212332
