19
Iteration:  3371
 O         0.140512        -0.236474         0.048609
 C        -0.929892         0.281167         0.815516
 C        -1.256764         2.013299         0.672782
 C        -2.250804         1.333104         1.666890
 C        -1.164024         0.442451         2.407854
 O        -3.582402         1.896965         1.968412
 C        -4.428113         1.397875         0.978305
 C        -3.545397         0.686959        -0.212368
 C        -2.409478         0.103987         0.707714
 H         0.625305        -1.022575         0.510787
 H        -0.429662         2.632450         1.129570
 H        -1.694907         2.273646        -0.371852
 H        -0.446600         1.046658         2.920413
 H        -1.508741        -0.408605         2.915666
 H        -5.075565         0.718576         1.562062
 H        -5.039987         2.224944         0.498301
 H        -4.022799        -0.192402        -0.834449
 H        -3.228236         1.522673        -0.876808
 H        -2.957162        -0.665494         1.460786
