19
Iteration:   522charge 0 multiplicity 1
 O         0.235954        -0.164524         0.202643
 C        -0.910157         0.406936         0.726074
 C        -1.376840         1.812837         0.605284
 C        -2.340929         1.150565         1.733797
 C        -1.147959         0.545611         2.348737
 O        -3.582248         1.653625         2.182460
 C        -4.283170         1.772475         0.871575
 C        -3.622152         0.595138        -0.210247
 C        -2.493777         0.038700         0.639308
 H         0.674352         0.494215        -0.269032
 H        -0.570947         2.544543         0.867242
 H        -1.745005         1.971363        -0.319028
 H        -0.490787         1.265060         2.870893
 H        -1.290651        -0.340464         2.859716
 H        -5.356789         1.613312         1.087319
 H        -4.179298         2.746876         0.456930
 H        -4.334640        -0.228369        -0.584987
 H        -3.106045         0.989799        -1.094044
 H        -2.625856        -0.961623         1.035716
