19
Iteration:  2772charge 0 multiplicity 1
 O         0.193750        -0.295503         0.167685
 C        -0.910808         0.355995         0.790501
 C        -1.275275         1.916269         0.706382
 C        -2.279680         1.327050         1.640973
 C        -1.193745         0.443842         2.367576
 O        -3.488223         1.895669         1.969289
 C        -4.465446         1.372644         0.998778
 C        -3.553033         0.704174        -0.197674
 C        -2.464017         0.142002         0.670113
 H         0.320930         0.153142        -0.748970
 H        -0.295094         2.391022         1.246516
 H        -1.546715         2.330808        -0.308742
 H        -0.445334         1.138168         2.877614
 H        -1.436351        -0.466417         2.788510
 H        -5.131356         0.643290         1.454046
 H        -5.301906         2.181381         0.741391
 H        -4.187737        -0.022547        -0.647225
 H        -3.340033         1.432215        -1.004008
 H        -2.877605        -0.730972         1.326797
