19
Iteration:  3477charge 0 multiplicity 1
 O         0.290478        -0.165239         0.167534
 C        -0.954614         0.329903         0.800210
 C        -1.386147         1.895088         0.710337
 C        -2.292418         1.153252         1.676979
 C        -1.027407         0.505735         2.349611
 O        -3.554651         1.785002         2.037158
 C        -4.286936         1.723956         0.675284
 C        -3.708457         0.577301        -0.057638
 C        -2.579835        -0.008352         0.782365
 H         0.059685         0.215063        -0.750859
 H        -0.668674         2.641554         1.144984
 H        -1.807710         2.379750        -0.229501
 H        -0.244137         1.286256         2.734199
 H        -1.006555        -0.427359         2.971145
 H        -5.318209         1.510350         1.048331
 H        -4.096326         2.790608         0.307859
 H        -4.340272        -0.281333        -0.106205
 H        -3.483239         0.632040        -1.187878
 H        -2.698887        -0.993912         1.189623
