19
Iteration:  1083charge 0 multiplicity 1
 O         0.183995        -0.307430         0.131359
 C        -0.938312         0.446386         0.678281
 C        -1.245540         1.903968         0.696164
 C        -2.321339         1.199375         1.726606
 C        -1.133910         0.533630         2.347515
 O        -3.603749         1.781514         2.113899
 C        -4.412008         1.622572         0.804961
 C        -3.601080         0.609172        -0.168493
 C        -2.425524         0.063451         0.722363
 H         0.988887         0.296599         0.021078
 H        -0.428836         2.507441         1.147493
 H        -1.692746         2.321558        -0.165319
 H        -0.383855         1.197398         2.957998
 H        -1.272130        -0.356192         2.969673
 H        -5.349593         1.058315         1.068680
 H        -4.621073         2.629570         0.385407
 H        -4.283696        -0.229731        -0.491667
 H        -3.408537         1.143887        -1.048508
 H        -2.567094        -0.906558         1.179062
