19
Iteration:   411charge 0 multiplicity 1
 O         0.169322        -0.274595         0.088455
 C        -0.862222         0.376859         0.823698
 C        -1.295072         1.914065         0.748752
 C        -2.289265         1.255159         1.671705
 C        -1.115369         0.501378         2.390860
 O        -3.599191         1.802673         2.051618
 C        -4.419734         1.360823         0.923188
 C        -3.533294         0.905606        -0.295451
 C        -2.468676         0.144725         0.663652
 H         0.343310        -1.120909         0.656863
 H        -0.612855         2.682015         1.104960
 H        -1.764980         2.176746        -0.196207
 H        -0.344939         1.171925         2.752494
 H        -1.336789        -0.456716         2.870764
 H        -5.026597         0.480297         1.223436
 H        -5.179831         2.160763         0.715304
 H        -4.074145         0.024705        -0.835105
 H        -3.150152         1.566215        -1.089392
 H        -2.832213        -0.833825         1.072344
