19
Iteration:  2733
 O         0.134916        -0.306669         0.320532
 C        -0.941948         0.434305         0.746960
 C        -1.127861         1.955581         0.745035
 C        -2.301181         1.279831         1.585389
 C        -1.084977         0.498972         2.297726
 O        -3.482399         1.830391         1.928953
 C        -4.536676         1.323618         1.045790
 C        -3.695508         0.766943        -0.181807
 C        -2.405239         0.180236         0.552601
 H        -0.183118        -0.603848        -0.535626
 H        -0.430068         2.477412         1.262090
 H        -1.468269         2.452959        -0.154498
 H        -0.327767         1.085856         2.859492
 H        -1.336805        -0.593419         2.679238
 H        -4.906035         0.460920         1.662745
 H        -5.072265         2.192487         0.929754
 H        -4.040411        -0.191822        -0.713525
 H        -3.357110         1.504475        -0.915219
 H        -2.857208        -0.636732         1.069469
