19
Iteration:  3232charge 0 multiplicity 1
 O         0.038483        -0.148758         0.016428
 C        -0.922927         0.447442         0.827784
 C        -1.273274         1.971500         0.748033
 C        -2.284590         1.276721         1.746365
 C        -1.061800         0.497242         2.377348
 O        -3.539122         1.719813         2.063003
 C        -4.287334         1.575362         0.708760
 C        -3.575270         0.514644        -0.147202
 C        -2.495416         0.078936         0.754070
 H         0.083996        -1.116473         0.305364
 H        -0.555133         2.644667         1.086611
 H        -1.812100         2.311609        -0.139726
 H        -0.465156         1.281382         2.888984
 H        -1.254515        -0.568416         2.815341
 H        -5.441132         1.629739         1.011720
 H        -4.136108         2.510731         0.162923
 H        -4.262194        -0.358697        -0.130930
 H        -3.264532         0.818707        -1.085700
 H        -2.738229        -0.831139         1.265832
