19
Iteration:  1752
 O         0.114283        -0.368990         0.107412
 C        -0.914855         0.438707         0.761940
 C        -1.082239         1.966665         0.714936
 C        -2.296662         1.369653         1.694513
 C        -1.195246         0.510148         2.355923
 O        -3.538517         1.833147         2.038536
 C        -4.486276         1.300181         0.946723
 C        -3.671837         0.655500        -0.185406
 C        -2.408124         0.216217         0.616597
 H         0.978838        -0.015098         0.129430
 H        -0.198428         2.536209         1.231947
 H        -1.293851         2.502890        -0.228420
 H        -0.564895         1.174626         2.894946
 H        -1.291371        -0.563805         2.871663
 H        -5.159709         0.653494         1.494347
 H        -5.203921         2.047568         0.656340
 H        -4.227281        -0.152869        -0.685134
 H        -3.492903         1.433302        -1.037859
 H        -2.761844        -0.732058         1.107300
