19
Iteration:   590charge 0 multiplicity 1
 O         0.058000        -0.201220        -0.011560
 C        -0.934023         0.476860         0.756768
 C        -1.265865         1.999652         0.886599
 C        -2.297435         1.252830         1.736332
 C        -1.073664         0.389880         2.372680
 O        -3.604402         1.805169         1.982380
 C        -4.327777         1.583667         0.697182
 C        -3.569632         0.522915        -0.059963
 C        -2.450311         0.042788         0.808009
 H         0.805345         0.367686        -0.311827
 H        -0.523342         2.552440         1.366985
 H        -1.610591         2.307224        -0.092330
 H        -0.392931         0.883137         3.004538
 H        -1.380942        -0.649231         2.692316
 H        -5.252095         1.133389         1.051728
 H        -4.526950         2.516514         0.223866
 H        -4.265078        -0.240166        -0.348765
 H        -3.185961         1.033347        -1.038538
 H        -2.570548        -0.993154         1.182404
