19
Iteration:  3777charge 0 multiplicity 1
 O         0.247429        -0.191488         0.292861
 C        -0.874279         0.404406         0.746537
 C        -1.331642         1.820888         0.564965
 C        -2.300336         1.256253         1.579096
 C        -1.065773         0.602972         2.242428
 O        -3.519063         1.711543         2.057469
 C        -4.371761         1.655745         0.805094
 C        -3.742638         0.511773        -0.017734
 C        -2.534407         0.049595         0.792221
 H         0.558413         0.200343        -0.583776
 H        -0.612523         2.539002         1.063720
 H        -1.752258         2.306873        -0.363366
 H        -0.297733         1.282034         2.827207
 H        -1.379938        -0.421892         2.749730
 H        -5.374149         1.581841         1.224575
 H        -4.033536         2.605739         0.352053
 H        -4.413396        -0.366966        -0.193120
 H        -3.530263         0.907856        -0.968948
 H        -2.828992        -0.785652         1.377502
