19
Iteration:   195charge 0 multiplicity 1
 O         0.075905        -0.114010         0.032722
 C        -0.973011         0.445240         0.733653
 C        -1.314083         1.930141         0.863061
 C        -2.328814         1.134106         1.766557
 C        -1.185360         0.347803         2.444399
 O        -3.572451         1.607327         2.048576
 C        -4.167973         1.750077         0.735985
 C        -3.551698         0.614279        -0.210208
 C        -2.462561         0.099834         0.637508
 H         0.848530         0.140115         0.461936
 H        -0.620820         2.647708         1.368826
 H        -1.898247         2.448248         0.001744
 H        -0.589066         1.042365         3.019871
 H        -1.325360        -0.536845         3.085862
 H        -5.265876         1.776870         0.873415
 H        -3.842709         2.655879         0.282102
 H        -4.302053        -0.159504        -0.332256
 H        -3.134185         0.879867        -1.150641
 H        -2.792582        -0.857607         1.066670
