19
Iteration:  2586charge 0 multiplicity 1
 O         0.228136        -0.261179         0.195015
 C        -0.909411         0.474334         0.744203
 C        -1.443969         1.911708         0.683332
 C        -2.378825         1.150836         1.692851
 C        -0.966662         0.496342         2.318665
 O        -3.603470         1.670633         2.093954
 C        -4.299587         1.805129         0.805180
 C        -3.651204         0.598461        -0.152622
 C        -2.437133         0.002994         0.793287
 H         0.288604        -0.229338        -0.830305
 H        -0.713984         2.651773         1.071865
 H        -1.827415         2.235345        -0.247156
 H        -0.237611         1.270988         2.750237
 H        -1.253898        -0.436037         2.799030
 H        -5.309335         1.702036         1.015400
 H        -4.269628         2.833100         0.305489
 H        -4.375237        -0.083567        -0.510906
 H        -3.305814         0.967779        -1.130242
 H        -2.611279        -0.953753         1.183161
