19
Iteration:  4473charge 0 multiplicity 1
 O         0.099321        -0.212657         0.060350
 C        -0.899268         0.416269         0.877275
 C        -1.321167         1.818175         0.577584
 C        -2.266830         1.315397         1.576150
 C        -1.061050         0.626880         2.297925
 O        -3.568289         1.761173         2.075973
 C        -4.410919         1.523365         0.888476
 C        -3.522871         0.581390        -0.110842
 C        -2.469269         0.051577         0.775940
 H         0.412950        -0.997317         0.594391
 H        -0.494063         2.561799         0.930752
 H        -1.789090         2.292015        -0.323413
 H        -0.336259         1.364203         2.738876
 H        -1.255952        -0.224097         3.026677
 H        -5.441753         1.066223         1.157432
 H        -4.605729         2.559139         0.485167
 H        -4.165169        -0.197468        -0.470085
 H        -3.190164         1.186386        -0.827191
 H        -2.877739        -0.587868         1.545428
