19
Iteration:  3204charge 0 multiplicity 1
 O         0.209271        -0.044113         0.060562
 C        -0.937979         0.394239         0.760263
 C        -1.343241         1.859299         0.676495
 C        -2.295296         1.216277         1.724772
 C        -1.095112         0.560678         2.417663
 O        -3.629028         1.703880         2.074898
 C        -4.242135         1.821640         0.718706
 C        -3.722603         0.500410        -0.047546
 C        -2.437055        -0.147417         0.723212
 H         0.295065        -1.063118        -0.044768
 H        -0.545138         2.611126         1.138471
 H        -1.839497         2.170270        -0.252798
 H        -0.433650         1.307551         2.799379
 H        -1.287819        -0.307851         3.004649
 H        -5.233624         2.024531         0.935199
 H        -3.601280         2.651023         0.219723
 H        -4.588187        -0.160236        -0.058961
 H        -3.407023         0.710837        -1.169502
 H        -2.428616        -1.162683         1.215298
