19
Iteration:  4613
 O         0.090926        -0.326047         0.311998
 C        -0.973994         0.401070         0.693727
 C        -1.111288         2.007853         0.681579
 C        -2.246212         1.402401         1.603815
 C        -1.033818         0.603326         2.256395
 O        -3.529070         1.863896         2.001723
 C        -4.427240         1.316659         0.973070
 C        -3.736977         0.547392        -0.128784
 C        -2.450898         0.124481         0.668414
 H         0.015860        -0.678282        -0.589131
 H        -0.288875         2.593829         1.121196
 H        -1.464394         2.446545        -0.224816
 H        -0.305899         1.216783         2.707846
 H        -1.245101        -0.307421         2.806152
 H        -5.196085         0.657089         1.351098
 H        -4.943684         2.148595         0.496203
 H        -4.344025        -0.288399        -0.360862
 H        -3.371175         1.310377        -1.010834
 H        -2.742646        -0.742466         1.345511
