19
Iteration:  1814charge 0 multiplicity 1
 O         0.055537        -0.229732         0.010060
 C        -0.929107         0.416347         0.805356
 C        -1.236168         1.890403         0.639255
 C        -2.312429         1.275066         1.688942
 C        -1.098898         0.496985         2.466982
 O        -3.538127         1.810228         2.016259
 C        -4.428890         1.480221         0.911805
 C        -3.548208         0.671889        -0.205504
 C        -2.465765         0.064693         0.714999
 H         0.792104        -0.120758         0.575806
 H        -0.609665         2.456299         1.251318
 H        -1.390611         2.349744        -0.355853
 H        -0.397148         1.238297         2.960413
 H        -1.183172        -0.431760         2.892617
 H        -4.979612         0.653437         1.397633
 H        -4.790814         2.492452         0.490882
 H        -4.165280        -0.112030        -0.541639
 H        -3.184941         1.229409        -1.021177
 H        -2.806201        -0.793483         1.293925
