19
Iteration:  3152charge 0 multiplicity 1
 O         0.228442        -0.142602         0.119785
 C        -0.968565         0.397265         0.698919
 C        -1.310868         1.875034         0.690469
 C        -2.316434         1.201318         1.665949
 C        -1.079225         0.532289         2.317061
 O        -3.615847         1.798163         2.049439
 C        -4.321400         1.656629         0.840891
 C        -3.656577         0.488904        -0.071722
 C        -2.488162         0.082242         0.724426
 H         0.638098        -0.914160         0.614547
 H        -0.520544         2.463653         1.172512
 H        -1.539047         2.316688        -0.254197
 H        -0.211857         1.110720         2.771450
 H        -1.244688        -0.378235         2.851956
 H        -5.316544         1.452068         1.175171
 H        -4.124784         2.622148         0.266514
 H        -4.387726        -0.293259        -0.327836
 H        -3.407848         0.924903        -1.095349
 H        -2.660338        -0.796584         1.357822
