19
Iteration:   174
 O        -0.054569        -0.245743         0.046414
 C        -0.868196         0.501878         0.865246
 C        -1.196316         2.030451         0.883036
 C        -2.397941         1.253638         1.734207
 C        -1.125658         0.391337         2.369538
 O        -3.694477         1.540113         2.099201
 C        -4.212902         1.702716         0.687403
 C        -3.559282         0.630130        -0.197420
 C        -2.358293         0.108378         0.659461
 H         0.857805         0.113007        -0.232734
 H        -0.514916         2.695239         1.513123
 H        -1.277086         2.518127        -0.156204
 H        -0.354652         0.729523         3.060185
 H        -1.282031        -0.680692         2.678264
 H        -5.305838         1.492392         0.623685
 H        -4.022371         2.716773         0.364166
 H        -4.233801        -0.149072        -0.435171
 H        -3.326041         1.113849        -1.095566
 H        -2.612140        -0.893748         0.973224
