19
Iteration:   401charge 0 multiplicity 1
 O         0.133049        -0.253149         0.153485
 C        -0.909270         0.374016         0.805080
 C        -1.231606         1.950889         0.754688
 C        -2.245032         1.258360         1.673920
 C        -1.176253         0.498353         2.373909
 O        -3.488153         1.792279         2.040841
 C        -4.475457         1.318773         0.903006
 C        -3.596483         0.814933        -0.240653
 C        -2.469587         0.161981         0.549063
 H         0.755962        -0.820584         0.688473
 H        -0.379764         2.534761         1.064377
 H        -1.661989         2.319489        -0.138742
 H        -0.520216         1.103711         3.015288
 H        -1.263744        -0.432339         2.854154
 H        -5.186535         0.537387         1.212931
 H        -4.973891         2.227200         0.612112
 H        -4.281867         0.172098        -0.900671
 H        -3.351504         1.692907        -0.847454
 H        -2.871823        -0.689959         1.133466
