19
Iteration:  4150charge 0 multiplicity 1
 O         0.044038        -0.141261         0.056869
 C        -0.910387         0.450558         0.843647
 C        -1.192856         1.879824         0.658684
 C        -2.246513         1.323745         1.726433
 C        -1.114390         0.593453         2.375247
 O        -3.492436         1.975717         1.926106
 C        -4.412972         1.392806         0.878849
 C        -3.643984         0.452912        -0.087740
 C        -2.433932         0.036084         0.744731
 H        -0.074023        -1.140566        -0.038151
 H        -0.495839         2.640821         1.132296
 H        -1.563880         2.096608        -0.344215
 H        -0.380800         1.140610         3.035315
 H        -1.319776        -0.366445         2.870181
 H        -5.146175         0.818128         1.464172
 H        -4.884213         2.214985         0.252013
 H        -4.254455        -0.509788        -0.325284
 H        -3.369690         0.970349        -1.062116
 H        -2.537008        -0.953557         1.241442
