19
Iteration:  4873
 O         0.076506        -0.183160         0.059969
 C        -0.978003         0.349237         0.786693
 C        -1.305270         1.871967         0.530353
 C        -2.223913         1.306761         1.692954
 C        -1.019491         0.648221         2.379107
 O        -3.564504         1.804362         2.062839
 C        -4.372219         1.520062         0.876530
 C        -3.529241         0.553579        -0.111518
 C        -2.507296         0.045882         0.805512
 H         0.019171        -1.210257         0.126852
 H        -0.565097         2.696059         0.826330
 H        -1.631898         2.237631        -0.433683
 H        -0.357030         1.444194         2.852868
 H        -1.202021        -0.253504         3.069750
 H        -5.199817         0.930298         1.183386
 H        -4.725646         2.430205         0.515067
 H        -4.186849        -0.282737        -0.489459
 H        -2.938104         1.060107        -0.945575
 H        -2.843557        -0.737803         1.448050
