19
Iteration:   503charge 0 multiplicity 1
 O         0.207117        -0.161963         0.245573
 C        -1.007193         0.401209         0.772621
 C        -1.339199         1.955271         0.681561
 C        -2.319850         1.227833         1.628408
 C        -1.053100         0.443262         2.316906
 O        -3.505806         1.669869         2.065406
 C        -4.265649         1.600437         0.791088
 C        -3.675843         0.674025        -0.164923
 C        -2.541532        -0.002369         0.739504
 H         0.533417         0.551933        -0.298022
 H        -0.749671         2.628344         1.274531
 H        -1.642297         2.409712        -0.267514
 H        -0.231640         0.998708         2.693845
 H        -1.274447        -0.556330         2.770139
 H        -5.259406         1.345110         1.131802
 H        -4.183426         2.581265         0.364520
 H        -4.259732        -0.181290        -0.339592
 H        -3.521324         1.185877        -1.153089
 H        -2.866478        -0.897899         1.307310
