19
Iteration:  1987charge 0 multiplicity 1
 O         0.023575        -0.227508         0.012321
 C        -0.942728         0.374778         0.811692
 C        -1.286161         1.874033         0.667943
 C        -2.346794         1.221728         1.771930
 C        -1.064312         0.551192         2.428993
 O        -3.512516         1.727124         2.118058
 C        -4.345834         1.554281         0.796700
 C        -3.512067         0.655583        -0.213222
 C        -2.467743         0.096814         0.704902
 H         0.944390         0.026807         0.338434
 H        -0.552395         2.690080         1.004518
 H        -1.708792         2.252654        -0.335967
 H        -0.416927         1.316777         2.988852
 H        -1.380728        -0.223809         3.054305
 H        -5.358581         1.243696         1.013540
 H        -4.524726         2.492719         0.363513
 H        -4.194066        -0.224267        -0.456324
 H        -3.310016         1.123021        -1.180882
 H        -2.754102        -0.843149         1.132492
