19
Iteration:  2918
 O         0.185222        -0.099046         0.137714
 C        -0.935350         0.432337         0.734481
 C        -1.321240         1.901252         0.743214
 C        -2.266855         1.181626         1.716436
 C        -1.070807         0.518024         2.363112
 O        -3.495272         1.803148         2.059639
 C        -4.338971         1.692178         0.760588
 C        -3.696835         0.460331        -0.116960
 C        -2.509778         0.011270         0.698836
 H         0.068242        -0.934061        -0.268979
 H        -0.517543         2.552564         1.106096
 H        -1.837994         2.375775        -0.127100
 H        -0.331291         1.109773         2.771026
 H        -1.252694        -0.461958         2.872380
 H        -5.362501         1.412446         1.179700
 H        -4.140414         2.559862         0.143997
 H        -4.499967        -0.359339        -0.207061
 H        -3.469924         0.787555        -1.118237
 H        -2.675699        -0.868299         1.332533
