19
Iteration:  1318
 O         0.092155        -0.248008         0.128281
 C        -0.918847         0.500194         0.760250
 C        -1.275969         1.902713         0.642596
 C        -2.255236         1.191546         1.719350
 C        -1.136882         0.467300         2.460249
 O        -3.439302         1.827878         1.960982
 C        -4.415035         1.425260         0.943576
 C        -3.643583         0.670631        -0.222640
 C        -2.481294         0.130322         0.646195
 H         0.880441        -0.088525         0.591861
 H        -0.677841         2.675019         1.117311
 H        -1.747478         2.239443        -0.312246
 H        -0.679511         1.152299         3.107197
 H        -1.300746        -0.605061         2.879232
 H        -5.090284         0.881235         1.487226
 H        -5.006514         2.283494         0.656653
 H        -4.147186         0.011378        -0.813364
 H        -3.288399         1.431821        -0.932607
 H        -2.528207        -0.918538         1.024598
