19
Iteration:   954
 O         0.121187        -0.252400         0.175568
 C        -0.893996         0.431484         0.739452
 C        -1.143079         1.944192         0.644203
 C        -2.272790         1.232471         1.617073
 C        -1.177125         0.453672         2.447013
 O        -3.458335         1.776471         1.962686
 C        -4.450593         1.378380         0.988919
 C        -3.696420         0.732133        -0.194184
 C        -2.490904         0.152706         0.637658
 H         1.009432         0.016233         0.320889
 H        -0.559055         2.768014         1.271102
 H        -1.406625         2.391048        -0.310756
 H        -0.638461         1.216189         3.049176
 H        -1.408972        -0.475549         2.801142
 H        -5.252007         0.702025         1.324025
 H        -4.942829         2.318885         0.677768
 H        -4.401014        -0.121503        -0.607516
 H        -3.388605         1.525636        -0.852221
 H        -2.779422        -0.834461         1.182072
