19
Iteration:  3102
 O         0.059540        -0.312975         0.055168
 C        -0.962331         0.427402         0.778401
 C        -1.179880         1.960795         0.723070
 C        -2.312004         1.341854         1.677206
 C        -1.166939         0.626143         2.323221
 O        -3.532104         1.879545         2.030507
 C        -4.407365         1.297877         0.858337
 C        -3.464860         0.686981        -0.141083
 C        -2.459139         0.083391         0.739073
 H         0.165832        -1.158411         0.448622
 H        -0.307228         2.531157         1.068132
 H        -1.618316         2.384175        -0.244649
 H        -0.327454         1.131177         2.822120
 H        -1.494424        -0.308787         2.872911
 H        -4.913156         0.422917         1.468243
 H        -5.128999         2.166560         0.682396
 H        -4.099513        -0.021051        -0.707479
 H        -3.210741         1.412405        -0.842491
 H        -2.738242        -0.912733         1.191924
