19
Iteration:  1453
 O         0.105890        -0.365660         0.074989
 C        -0.893865         0.473805         0.744740
 C        -1.282045         2.008033         0.776659
 C        -2.247356         1.294026         1.690119
 C        -1.131560         0.536038         2.463336
 O        -3.484746         1.775848         2.054923
 C        -4.401991         1.498677         0.845669
 C        -3.697355         0.582018        -0.219475
 C        -2.443514         0.112568         0.642637
 H         0.891745         0.239433         0.182065
 H        -0.598764         2.749453         1.344387
 H        -1.774650         2.259668        -0.176586
 H        -0.244769         0.978601         3.023978
 H        -1.407375        -0.422178         2.837306
 H        -5.290177         1.043058         1.249423
 H        -4.738832         2.375182         0.346922
 H        -4.191562        -0.369001        -0.661921
 H        -3.325921         1.243362        -1.021496
 H        -2.749577        -0.929774         1.106733
