19
Iteration:  4632
 O         0.205703        -0.352391         0.219640
 C        -0.799334         0.459406         0.787683
 C        -1.244275         1.959497         0.620637
 C        -2.280383         1.261922         1.577220
 C        -1.109110         0.572504         2.311153
 O        -3.457033         1.902199         1.957820
 C        -4.515620         1.477310         1.014071
 C        -3.690807         0.535707        -0.147832
 C        -2.519241         0.059370         0.774078
 H         0.220610        -0.048856        -0.744536
 H        -0.618550         2.707731         1.155281
 H        -1.470525         2.350563        -0.410215
 H        -0.379113         1.209208         2.853918
 H        -1.393860        -0.333595         2.897883
 H        -5.279390         0.800942         1.497378
 H        -5.167245         2.291694         0.476094
 H        -4.217239        -0.372098        -0.509969
 H        -3.585209         1.325321        -0.958359
 H        -2.835733        -0.840976         1.298114
