19
Iteration:   373
 O         0.174401        -0.265939         0.204351
 C        -0.885168         0.446962         0.718765
 C        -1.065192         1.983939         0.819082
 C        -2.287902         1.289250         1.589587
 C        -1.282422         0.391365         2.229727
 O        -3.559022         1.858534         2.015480
 C        -4.515333         1.406523         1.020686
 C        -3.621886         0.668839        -0.180946
 C        -2.455065         0.132968         0.571076
 H         1.035762        -0.008071         0.467967
 H        -0.251745         2.512469         1.436389
 H        -1.200197         2.534945        -0.151059
 H        -0.566626         0.790377         2.992573
 H        -1.482664        -0.668074         2.554477
 H        -5.156956         0.542251         1.274434
 H        -5.066448         2.305559         0.691817
 H        -4.309040        -0.056710        -0.457163
 H        -3.402668         1.294065        -1.044141
 H        -2.755688        -0.766120         1.131950
