19
Iteration:  3706
 O         0.037485        -0.265981         0.181055
 C        -1.002206         0.474007         0.704137
 C        -1.300682         1.909610         0.724608
 C        -2.240984         1.267720         1.763500
 C        -0.943794         0.642572         2.330731
 O        -3.642691         1.716800         2.105384
 C        -4.304811         1.611316         0.669473
 C        -3.632303         0.453591        -0.148362
 C        -2.408603         0.103096         0.830495
 H         0.004191        -0.300934        -0.830318
 H        -0.520002         2.573948         1.014650
 H        -1.663865         2.310834        -0.217731
 H        -0.180154         1.263959         2.837316
 H        -1.046810        -0.399725         2.757792
 H        -5.350578         1.387519         0.883651
 H        -4.064656         2.575353         0.197104
 H        -4.260561        -0.414662        -0.274669
 H        -3.251586         0.903368        -1.195328
 H        -2.652363        -0.861405         1.397156
