19
Iteration:   295charge 0 multiplicity 1
 O         0.115343        -0.209261         0.107047
 C        -0.924839         0.402547         0.834015
 C        -1.245029         1.967287         0.780574
 C        -2.246947         1.265467         1.717415
 C        -1.120857         0.437062         2.414828
 O        -3.601299         1.658564         2.030338
 C        -4.379807         1.519503         0.818506
 C        -3.537657         0.749645        -0.255669
 C        -2.440220         0.189665         0.710113
 H        -0.356938        -0.980729        -0.359572
 H        -0.296832         2.519539         1.163205
 H        -1.656956         2.429585        -0.065037
 H        -0.411382         1.074372         2.991047
 H        -1.358976        -0.531852         2.720114
 H        -5.185580         0.771888         0.968664
 H        -4.853496         2.389506         0.486965
 H        -4.074848        -0.006857        -0.694680
 H        -3.196164         1.370608        -1.034572
 H        -2.749629        -0.799080         1.029264
