19
Iteration:  2527
 O         0.213824        -0.208474         0.028538
 C        -0.880527         0.425627         0.820812
 C        -1.221844         1.968397         0.793881
 C        -2.336299         1.228672         1.678996
 C        -1.111951         0.475200         2.364956
 O        -3.590096         1.750449         2.021950
 C        -4.339317         1.608512         0.781401
 C        -3.688510         0.581716        -0.112226
 C        -2.438231         0.096300         0.751060
 H        -0.346265        -0.598837        -0.642923
 H        -0.348139         2.472618         1.268129
 H        -1.684622         2.374164        -0.211585
 H        -0.442191         1.008546         2.931040
 H        -1.383847        -0.414368         2.976909
 H        -5.344317         1.299599         1.202090
 H        -4.318396         2.562104         0.249644
 H        -4.373853        -0.297981        -0.093747
 H        -3.528940         1.034240        -1.038285
 H        -2.665603        -0.925416         1.239272
