19
Iteration:   457
 O         0.108678        -0.209540         0.074100
 C        -0.910627         0.404088         0.837596
 C        -1.193051         1.999424         0.816679
 C        -2.263438         1.314217         1.686685
 C        -1.170513         0.461193         2.431012
 O        -3.521220         1.736401         1.972310
 C        -4.401709         1.472252         0.861751
 C        -3.581317         0.562060        -0.207215
 C        -2.441994         0.186849         0.667474
 H        -0.298375        -0.484385        -0.814654
 H        -0.515952         2.602651         1.444683
 H        -1.236508         2.421791        -0.115354
 H        -0.448842         0.985965         3.069146
 H        -1.657419        -0.356585         2.822763
 H        -5.202368         0.832667         1.261407
 H        -4.778947         2.378188         0.504371
 H        -4.287534        -0.235671        -0.513981
 H        -3.342460         1.151323        -1.106800
 H        -2.735884        -0.727956         1.213749
