19
Iteration:  3298charge 0 multiplicity 1
 O         0.198157        -0.220934         0.224029
 C        -0.897641         0.400713         0.809289
 C        -1.126664         1.899756         0.612184
 C        -2.320262         1.295018         1.579193
 C        -1.157647         0.459855         2.359029
 O        -3.535392         1.913944         1.918483
 C        -4.468467         1.280177         1.118209
 C        -3.605439         0.807205        -0.178534
 C        -2.505569         0.165274         0.616819
 H         0.140181        -1.156995         0.123929
 H        -0.435926         2.538090         1.035689
 H        -1.477689         2.067364        -0.376847
 H        -0.528619         1.101857         2.981637
 H        -1.510516        -0.573994         2.771273
 H        -4.881257         0.278604         1.511996
 H        -5.070586         2.109149         0.814782
 H        -4.256702        -0.013590        -0.563362
 H        -3.442764         1.457239        -0.986636
 H        -2.817274        -0.779773         1.045991
