19
Iteration:  2057charge 0 multiplicity 1
 O         0.077536        -0.284379         0.182626
 C        -0.938494         0.395668         0.804753
 C        -1.063182         1.976787         0.733073
 C        -2.245472         1.266551         1.590475
 C        -1.199767         0.480848         2.376371
 O        -3.439846         1.855596         1.968874
 C        -4.491964         1.344776         1.015544
 C        -3.675178         0.699012        -0.216445
 C        -2.454397         0.132683         0.644850
 H         0.580019         0.359610        -0.425945
 H        -0.455242         2.561470         1.372479
 H        -1.385940         2.524088        -0.112551
 H        -0.502240         1.087667         2.869719
 H        -1.626984        -0.548514         2.785171
 H        -5.271725         0.598588         1.316616
 H        -5.154272         2.226463         0.716076
 H        -4.083932        -0.132210        -0.661852
 H        -3.484476         1.314035        -1.102881
 H        -2.656067        -0.890895         1.072487
