19
Iteration:    24
 O         0.023097        -0.285283         0.013736
 C        -0.927117         0.404242         0.818628
 C        -1.103033         1.888958         0.774105
 C        -2.342865         1.222906         1.731954
 C        -1.132381         0.469023         2.439930
 O        -3.622014         1.819134         1.975980
 C        -4.489949         1.301020         0.863109
 C        -3.423423         0.915131        -0.248222
 C        -2.454535         0.132421         0.681220
 H         0.838636        -0.234334         0.564353
 H        -0.308870         2.438538         1.384002
 H        -1.406162         2.334639        -0.078576
 H        -0.415476         1.087141         3.120944
 H        -1.360597        -0.397938         2.950914
 H        -5.021438         0.451186         1.241025
 H        -5.194882         2.100521         0.545786
 H        -3.850390         0.393259        -1.117078
 H        -3.031760         1.918766        -0.587550
 H        -2.859565        -0.843734         1.037718
