19
Iteration:  1775
 O         0.042608        -0.268833         0.155335
 C        -0.945562         0.430410         0.744788
 C        -1.158919         1.981178         0.738686
 C        -2.232973         1.273654         1.615694
 C        -1.081663         0.462191         2.327261
 O        -3.529887         1.856930         1.962477
 C        -4.447683         1.370696         0.977078
 C        -3.615805         0.660448        -0.176908
 C        -2.456625         0.126570         0.675255
 H         0.955766        -0.111515         0.520842
 H        -0.612960         2.812925         1.355543
 H        -1.427949         2.419940        -0.224009
 H        -0.324331         0.944859         2.900551
 H        -1.377477        -0.632935         2.734806
 H        -5.196692         0.755147         1.481230
 H        -5.112818         2.169964         0.681896
 H        -4.260385        -0.158785        -0.605479
 H        -3.454096         1.350343        -1.091314
 H        -2.786050        -0.822694         1.167255
