19
Iteration:  3553
 O         0.052293        -0.415451         0.100166
 C        -0.838623         0.425990         0.774438
 C        -1.193214         2.043577         0.684961
 C        -2.321796         1.328879         1.696255
 C        -1.066745         0.560071         2.281814
 O        -3.590236         1.893898         1.994981
 C        -4.554047         1.294300         0.861916
 C        -3.509497         0.692596        -0.073659
 C        -2.431868         0.102815         0.708609
 H         0.751205        -0.777684         0.581630
 H        -0.493629         2.695746         1.221906
 H        -1.604915         2.298078        -0.321222
 H        -0.194172         1.242492         2.741353
 H        -1.384381        -0.298296         2.960958
 H        -5.203351         0.624572         1.516397
 H        -5.140321         2.265999         0.550683
 H        -3.979346         0.006896        -0.756344
 H        -3.180303         1.548286        -0.836986
 H        -2.642878        -0.843319         1.235690
