19
Iteration:  1300charge 0 multiplicity 1
 O         0.093829        -0.230253         0.062605
 C        -0.946199         0.388633         0.795649
 C        -1.296126         1.958658         0.776334
 C        -2.285952         1.284916         1.672962
 C        -1.156076         0.475994         2.309822
 O        -3.517378         1.879187         1.981772
 C        -4.376214         1.429422         0.889281
 C        -3.507660         0.646391        -0.137354
 C        -2.462600         0.027155         0.707594
 H         0.868068        -0.025907         0.537539
 H        -0.522166         2.677699         1.267158
 H        -1.628904         2.465150        -0.107503
 H        -0.251768         0.986120         2.764684
 H        -1.510933        -0.431211         2.682622
 H        -5.239859         0.715424         1.355855
 H        -4.907952         2.303533         0.506797
 H        -4.311899        -0.168565        -0.513000
 H        -3.165784         1.219889        -1.013560
 H        -2.845925        -0.860735         1.266615
