19
Iteration:    41charge 0 multiplicity 1
 O        -0.020083        -0.375594         0.048785
 C        -0.910291         0.401759         0.849863
 C        -1.143676         1.970286         0.899678
 C        -2.270140         1.354500         1.663600
 C        -1.233999         0.447807         2.391150
 O        -3.575223         1.821085         1.975612
 C        -4.397767         1.190423         0.945190
 C        -3.475742         0.895990        -0.298508
 C        -2.414653         0.263349         0.599752
 H         0.912252        -0.449915         0.424897
 H        -0.447109         2.581539         1.411932
 H        -1.237478         2.597131        -0.116648
 H        -0.514827         0.977995         3.011584
 H        -1.714323        -0.567649         2.770289
 H        -4.817234         0.155357         1.239939
 H        -5.280496         1.790726         0.764165
 H        -3.912345         0.215240        -1.044379
 H        -3.154911         1.754788        -0.841706
 H        -2.823543        -0.673549         1.010115
