19
Iteration:  3681
 O         0.055947        -0.337041         0.084857
 C        -0.941480         0.437361         0.842294
 C        -1.327852         2.004617         0.624145
 C        -2.259169         1.271400         1.616322
 C        -1.059870         0.670837         2.432225
 O        -3.597743         1.690984         2.056823
 C        -4.333927         1.575371         0.829500
 C        -3.514428         0.544582        -0.152023
 C        -2.384987         0.046997         0.825901
 H        -0.506238        -0.428405        -0.773447
 H        -0.617403         2.738766         1.035502
 H        -1.585996         2.417122        -0.365944
 H        -0.365732         1.236753         3.068542
 H        -1.298256        -0.236718         2.921396
 H        -5.296785         1.135833         1.078404
 H        -4.362007         2.565950         0.306259
 H        -4.188238        -0.269883        -0.445102
 H        -3.163029         1.198646        -1.071251
 H        -2.748300        -0.845605         1.399779
