19
Iteration:  4394
 O         0.253820        -0.068003         0.088637
 C        -0.967029         0.386385         0.727587
 C        -1.249195         1.864577         0.571687
 C        -2.313324         1.216198         1.734193
 C        -1.128269         0.598564         2.415205
 O        -3.569347         1.805543         2.058367
 C        -4.280872         1.652276         0.783204
 C        -3.721161         0.420631        -0.016031
 C        -2.460325         0.035834         0.769840
 H         0.166469        -1.040008        -0.210108
 H        -0.506105         2.570142         1.082320
 H        -1.715832         2.100665        -0.444464
 H        -0.497035         1.291814         2.970988
 H        -1.418498        -0.448457         2.764748
 H        -5.323463         1.616982         1.093893
 H        -4.259847         2.605989         0.089453
 H        -4.385462        -0.373513         0.023298
 H        -3.687856         0.577580        -1.148589
 H        -2.539474        -0.988893         1.237489
