19
Iteration:  3596
 O         0.150608        -0.231374         0.121025
 C        -0.898109         0.381933         0.808538
 C        -1.165739         1.874477         0.725939
 C        -2.255878         1.316840         1.547098
 C        -1.261504         0.551708         2.389827
 O        -3.437836         1.962055         1.941533
 C        -4.470079         1.297713         1.055867
 C        -3.693083         0.663530        -0.182699
 C        -2.423960         0.122277         0.605869
 H         0.335981        -0.965632         0.695379
 H        -0.466439         2.569324         1.188602
 H        -1.489549         2.180111        -0.291106
 H        -0.470442         1.240572         2.903491
 H        -1.673703        -0.339824         2.928776
 H        -4.705983         0.391914         1.640746
 H        -5.286840         2.063123         0.871478
 H        -4.288071        -0.030533        -0.742937
 H        -3.509833         1.393293        -1.101692
 H        -2.487379        -0.886461         1.126732
