19
Iteration:  2334
 O         0.052434        -0.338893         0.243754
 C        -0.939460         0.471658         0.825671
 C        -1.270858         2.005141         0.714388
 C        -2.245281         1.264391         1.707920
 C        -0.968890         0.432170         2.356908
 O        -3.488747         1.756639         2.043553
 C        -4.402709         1.451317         0.858062
 C        -3.635724         0.678785        -0.200702
 C        -2.441516         0.175756         0.611212
 H        -0.073605        -0.392064        -0.677934
 H        -0.703982         2.785425         1.170603
 H        -1.641360         2.411057        -0.205304
 H        -0.340824         1.195693         2.813537
 H        -1.366656        -0.385475         2.792867
 H        -5.256755         0.818264         1.147358
 H        -4.810283         2.411624         0.384512
 H        -4.323213        -0.021604        -0.726511
 H        -3.541260         1.371216        -1.138247
 H        -2.762646        -0.837091         1.008351
