19
Iteration:  1353
 O         0.143404        -0.362995         0.172924
 C        -0.911822         0.416573         0.709380
 C        -1.146776         1.965496         0.677964
 C        -2.277908         1.339828         1.626864
 C        -1.159182         0.546452         2.287909
 O        -3.522623         1.710369         2.015912
 C        -4.468395         1.376472         0.946160
 C        -3.626000         0.687139        -0.169867
 C        -2.523973         0.231353         0.738421
 H         0.852701         0.207648         0.347004
 H        -0.416214         2.612204         1.344570
 H        -1.323936         2.521053        -0.230103
 H        -0.505759         1.089178         2.939422
 H        -1.423866        -0.458030         2.700174
 H        -5.041538         0.584460         1.311898
 H        -4.963933         2.254338         0.647785
 H        -4.294433        -0.063062        -0.715776
 H        -3.147057         1.442983        -0.779043
 H        -2.965005        -0.718768         1.241172
