19
Iteration:  1570
 O         0.060596        -0.191082         0.023895
 C        -0.889131         0.451296         0.789056
 C        -1.250237         1.951595         0.700595
 C        -2.298315         1.195266         1.679972
 C        -1.102340         0.491376         2.371759
 O        -3.640236         1.717410         2.103753
 C        -4.274479         1.713269         0.690727
 C        -3.599630         0.516642        -0.040576
 C        -2.453063         0.003036         0.758880
 H         0.854577         0.414868        -0.215906
 H        -0.448068         2.390013         1.341674
 H        -1.563879         2.463305        -0.140920
 H        -0.520561         0.972953         3.211011
 H        -1.290365        -0.514560         2.901308
 H        -5.430752         1.538207         0.854450
 H        -4.339270         2.776445         0.262553
 H        -4.250095        -0.374748        -0.092052
 H        -3.436781         0.841962        -1.051290
 H        -2.564092        -1.007269         1.115730
