19
Iteration:  3069
 O         0.161175        -0.229019         0.162088
 C        -0.902449         0.399494         0.861718
 C        -1.144835         1.898379         0.730045
 C        -2.309397         1.294859         1.655444
 C        -1.128607         0.519406         2.344926
 O        -3.500475         1.925173         1.831944
 C        -4.470156         1.280800         1.052693
 C        -3.662058         0.742841        -0.137637
 C        -2.458439         0.165355         0.618363
 H        -0.006472        -1.150517        -0.064985
 H        -0.267575         2.513635         0.923557
 H        -1.587072         2.077346        -0.321241
 H        -0.252191         1.009176         2.843246
 H        -1.449130        -0.408850         2.862097
 H        -5.058677         0.423109         1.601249
 H        -5.293408         1.989045         0.719871
 H        -4.191221        -0.088995        -0.629048
 H        -3.486677         1.543598        -0.771695
 H        -2.724447        -0.847698         1.057487
