19
Iteration:   725charge 0 multiplicity 1
 O         0.117400        -0.228095         0.019643
 C        -0.959044         0.409924         0.807585
 C        -1.175257         1.824557         0.739048
 C        -2.300476         1.269156         1.784406
 C        -1.145192         0.423563         2.430077
 O        -3.559911         1.959858         1.907185
 C        -4.416089         1.299677         0.968265
 C        -3.577274         0.711267        -0.242732
 C        -2.477829         0.198967         0.700856
 H         0.843174         0.207239         0.389497
 H        -0.370561         2.455178         1.083857
 H        -1.646284         2.030794        -0.247245
 H        -0.350201         1.120291         2.924654
 H        -1.191945        -0.576440         2.825807
 H        -4.953119         0.390832         1.249564
 H        -5.219847         2.051178         0.768999
 H        -4.075062        -0.085985        -0.945884
 H        -3.156697         1.534950        -0.850969
 H        -2.853301        -0.678947         1.350796
