19
Iteration:  1472charge 0 multiplicity 1
 O         0.043389        -0.311227         0.196462
 C        -0.914663         0.460946         0.721007
 C        -1.289077         1.969874         0.689875
 C        -2.335603         1.192859         1.651582
 C        -1.080290         0.535702         2.291618
 O        -3.570320         1.720594         2.057380
 C        -4.357395         1.562656         0.887722
 C        -3.554544         0.643499        -0.134889
 C        -2.415768         0.094258         0.638293
 H         0.978068         0.099746         0.281944
 H        -0.472672         2.527025         1.247010
 H        -1.749160         2.428137        -0.140193
 H        -0.537047         1.368768         2.785979
 H        -1.204003        -0.463247         2.910505
 H        -5.285716         1.054370         1.271548
 H        -4.561195         2.617781         0.539605
 H        -4.266988        -0.130736        -0.273419
 H        -3.237298         1.178884        -1.000447
 H        -2.534922        -0.959224         1.006144
