19
Iteration:  1310
 O         0.074798        -0.220711         0.120744
 C        -0.909987         0.464056         0.719211
 C        -1.309648         1.946737         0.711216
 C        -2.295286         1.193636         1.641559
 C        -1.157638         0.429345         2.373806
 O        -3.460252         1.838814         1.935743
 C        -4.348202         1.439456         0.917458
 C        -3.599294         0.708733        -0.142694
 C        -2.464065         0.094372         0.749077
 H         0.908256        -0.116248         0.543819
 H        -0.591760         2.698525         1.244911
 H        -1.763705         2.252089        -0.211587
 H        -0.543189         1.032674         3.038070
 H        -1.380042        -0.410646         2.950934
 H        -5.029999         0.594954         1.316158
 H        -4.888855         2.271948         0.534991
 H        -4.222767        -0.180074        -0.627315
 H        -3.224720         1.330442        -0.969500
 H        -2.749991        -0.879384         1.266612
