19
Iteration:  1882
 O         0.057258        -0.227542         0.106781
 C        -0.976363         0.384747         0.776718
 C        -1.343021         1.944499         0.680810
 C        -2.334491         1.230339         1.674006
 C        -1.010773         0.516592         2.453568
 O        -3.524165         1.722001         2.064756
 C        -4.338401         1.660545         0.853107
 C        -3.637113         0.548732        -0.175035
 C        -2.444261         0.087916         0.694476
 H         0.815858         0.359425        -0.025344
 H        -0.526354         2.499656         1.109102
 H        -1.603193         2.238040        -0.311322
 H        -0.207605         1.016135         2.853913
 H        -1.135961        -0.512037         2.978119
 H        -5.361332         1.270891         1.021418
 H        -4.040510         2.559453         0.254588
 H        -4.223073        -0.261014        -0.541319
 H        -3.208101         1.184857        -0.987577
 H        -2.699988        -0.954773         1.052092
