19
Iteration:  2021charge 0 multiplicity 1
 O         0.119306        -0.337572         0.116384
 C        -0.891815         0.422462         0.730075
 C        -1.219573         1.988225         0.709228
 C        -2.271471         1.239780         1.690573
 C        -1.110452         0.455883         2.314115
 O        -3.542963         1.867038         2.048625
 C        -4.519095         1.458261         0.853747
 C        -3.550842         0.639466        -0.179872
 C        -2.485084         0.098986         0.733665
 H         0.808392         0.425822         0.040046
 H        -0.528831         2.615623         1.335645
 H        -1.660997         2.513124        -0.204843
 H        -0.402774         0.958264         3.038639
 H        -1.390139        -0.434204         2.852906
 H        -5.304688         0.897144         1.361898
 H        -4.736646         2.460078         0.661099
 H        -4.193619        -0.213150        -0.476985
 H        -3.168499         1.349547        -0.934715
 H        -2.729026        -0.889497         1.098139
