19
Iteration:  3940charge 0 multiplicity 1
 O         0.111496        -0.323559         0.247500
 C        -0.914584         0.442139         0.730591
 C        -1.205637         1.940368         0.600530
 C        -2.304199         1.319878         1.531626
 C        -1.127474         0.666557         2.316720
 O        -3.473633         1.796023         1.993174
 C        -4.500454         1.352865         1.093969
 C        -3.609627         0.642750        -0.193339
 C        -2.423674         0.111922         0.610906
 H         0.533023        -0.823208         0.935417
 H        -0.542293         2.647459         1.070232
 H        -1.675109         2.168114        -0.390032
 H        -0.478692         1.436153         2.763435
 H        -1.353271        -0.102609         3.094364
 H        -4.964260         0.472918         1.611536
 H        -5.018988         2.225636         0.753077
 H        -4.334627        -0.089598        -0.657812
 H        -3.311335         1.410925        -0.880704
 H        -2.693111        -0.824673         1.184109
