19
Iteration:  4481charge 0 multiplicity 1
 O         0.083702        -0.184912         0.096897
 C        -0.938631         0.379604         0.791618
 C        -1.213784         1.881894         0.563110
 C        -2.301257         1.299126         1.653933
 C        -1.050751         0.651737         2.356445
 O        -3.539277         1.752638         2.080665
 C        -4.427907         1.532082         0.895890
 C        -3.597931         0.571510        -0.153199
 C        -2.459019         0.062124         0.776745
 H         0.316450        -1.036732         0.496998
 H        -0.454060         2.533408         1.009685
 H        -1.571575         2.026945        -0.465764
 H        -0.350855         1.358309         2.732122
 H        -1.281045        -0.198028         3.005418
 H        -5.237279         1.000573         1.327449
 H        -4.708939         2.373440         0.273607
 H        -4.211146        -0.221474        -0.521983
 H        -3.245882         1.142408        -1.146679
 H        -2.759530        -0.797278         1.468360
