19
Iteration:  2819charge 0 multiplicity 1
 O         0.068937        -0.336002         0.043447
 C        -0.942941         0.416340         0.779535
 C        -1.279321         1.994395         0.727785
 C        -2.277689         1.312040         1.709352
 C        -1.085760         0.524990         2.362753
 O        -3.571170         1.779540         2.053157
 C        -4.268592         1.496826         0.857236
 C        -3.594132         0.616673        -0.138347
 C        -2.478111         0.084302         0.691769
 H         0.938127        -0.001228         0.191981
 H        -0.577022         2.750368         1.160706
 H        -1.984679         2.329361        -0.048355
 H        -0.449587         1.191364         3.002856
 H        -1.516526        -0.449899         2.824811
 H        -5.274336         1.031717         1.039821
 H        -4.579971         2.439620         0.330583
 H        -4.164294        -0.281506        -0.549547
 H        -3.290577         1.182999        -1.007366
 H        -2.611916        -0.844148         1.261164
