19
Iteration:  4574
 O         0.106595        -0.329265         0.147405
 C        -0.841011         0.401487         0.863809
 C        -1.251912         1.962805         0.622916
 C        -2.224802         1.322320         1.563915
 C        -1.110166         0.648460         2.346352
 O        -3.543494         1.926223         1.989269
 C        -4.387746         1.284082         0.971877
 C        -3.607570         0.683104        -0.146859
 C        -2.469288         0.010928         0.729340
 H        -0.419315        -0.870169        -0.472226
 H        -0.588969         2.762332         1.031912
 H        -1.554427         2.067504        -0.442991
 H        -0.424377         1.434025         2.869056
 H        -1.408318        -0.213467         2.991631
 H        -4.914116         0.525039         1.645723
 H        -5.092031         2.044235         0.566708
 H        -4.343151         0.089975        -0.799537
 H        -3.406690         1.415719        -0.731578
 H        -2.802197        -0.764404         1.373432
