19
Iteration:  1135charge 0 multiplicity 1
 O         0.108843        -0.271663         0.005875
 C        -0.914225         0.460231         0.773009
 C        -1.234220         1.962920         0.730242
 C        -2.316764         1.162717         1.779566
 C        -1.051631         0.527618         2.413315
 O        -3.621706         1.737847         2.111496
 C        -4.294634         1.679065         0.668585
 C        -3.603965         0.516627        -0.162383
 C        -2.535092         0.052144         0.815129
 H         0.932751         0.309419        -0.061528
 H        -0.714970         2.628478         1.405911
 H        -1.630916         2.599563        -0.092658
 H        -0.440242         1.313477         2.804720
 H        -1.131824        -0.530150         2.802015
 H        -5.335214         1.301011         0.747056
 H        -4.362647         2.628170         0.168913
 H        -4.418278        -0.189113        -0.262679
 H        -3.298566         0.869833        -1.204731
 H        -2.656344        -0.937664         1.243728
