19
Iteration:   593
 O         0.062700        -0.198369        -0.029726
 C        -0.908335         0.457048         0.749962
 C        -1.287271         1.964136         0.901313
 C        -2.328591         1.249024         1.747036
 C        -1.089725         0.401475         2.386913
 O        -3.568743         1.798947         1.967535
 C        -4.348604         1.574846         0.711966
 C        -3.543131         0.532394        -0.082991
 C        -2.456795         0.079419         0.819067
 H         0.780126         0.353516        -0.254764
 H        -0.577441         2.606637         1.432412
 H        -1.542438         2.257607        -0.215563
 H        -0.347416         1.014122         2.991735
 H        -1.386140        -0.649906         2.719328
 H        -5.251053         1.098991         1.102706
 H        -4.538191         2.568109         0.226255
 H        -4.300095        -0.232624        -0.311496
 H        -3.253770         1.046372        -1.048246
 H        -2.606027        -0.975965         1.187115
