19
Iteration:  4346charge 0 multiplicity 1
 O         0.147835        -0.244750         0.116624
 C        -0.936240         0.460666         0.697654
 C        -1.378832         1.935250         0.582811
 C        -2.318560         1.244727         1.740471
 C        -1.057261         0.664554         2.362204
 O        -3.683116         1.727122         2.131596
 C        -4.251668         1.588097         0.779674
 C        -3.525139         0.533803        -0.029082
 C        -2.420694         0.048270         0.796324
 H        -0.208514        -0.996765        -0.317451
 H        -0.594831         2.531278         0.909363
 H        -1.802982         2.182797        -0.330171
 H        -0.285725         1.363422         2.582335
 H        -1.143762        -0.228825         2.853703
 H        -5.342257         1.466441         0.757210
 H        -4.078049         2.476806         0.215313
 H        -4.272052        -0.325162        -0.313571
 H        -3.300703         0.898577        -1.107480
 H        -2.411916        -0.991498         1.266024
