19
Iteration:   246
 O         0.253765        -0.119567         0.139037
 C        -0.961028         0.413148         0.783236
 C        -1.293119         1.923088         0.778988
 C        -2.288170         1.212101         1.699603
 C        -1.184427         0.363710         2.274295
 O        -3.566496         1.594596         2.094144
 C        -4.240098         1.683535         0.774599
 C        -3.678257         0.723616        -0.169074
 C        -2.491056         0.109730         0.647943
 H         0.668226        -0.491702         0.919698
 H        -0.710977         2.632269         1.265361
 H        -1.642871         2.331875        -0.218698
 H        -0.405115         0.826733         2.874436
 H        -1.610127        -0.607503         2.721339
 H        -5.298471         1.500014         0.975864
 H        -4.231409         2.707534         0.285546
 H        -4.445717        -0.140125        -0.364862
 H        -3.441888         1.096972        -1.223766
 H        -2.902741        -0.809046         1.192860
