19
Iteration:  1667charge 0 multiplicity 1
 O         0.027520        -0.238136         0.053192
 C        -0.883936         0.473235         0.766857
 C        -1.139647         1.947294         0.695926
 C        -2.287206         1.231754         1.690836
 C        -1.161098         0.524199         2.375334
 O        -3.542081         1.796226         2.035701
 C        -4.416888         1.471552         0.867948
 C        -3.609226         0.544383        -0.115962
 C        -2.445641         0.137480         0.645159
 H         0.974211        -0.150501         0.433069
 H        -0.428179         2.537889         1.377457
 H        -1.380210         2.522823        -0.169822
 H        -0.520948         0.975034         3.110901
 H        -1.561968        -0.384359         2.979920
 H        -5.370335         0.989122         1.379073
 H        -4.650718         2.485949         0.438833
 H        -4.209436        -0.341082        -0.424772
 H        -3.400237         1.133878        -1.076431
 H        -2.563563        -0.860121         1.043262
