19
Iteration:  2565charge 0 multiplicity 1
 O         0.153313        -0.160728         0.187888
 C        -0.965823         0.409075         0.826881
 C        -1.358621         1.922432         0.664196
 C        -2.288764         1.233228         1.741716
 C        -1.064892         0.486425         2.325731
 O        -3.542821         1.664824         2.084257
 C        -4.208692         1.655689         0.799006
 C        -3.640629         0.609041        -0.120723
 C        -2.489014         0.029442         0.649210
 H        -0.041843        -0.407561        -0.705389
 H        -0.697744         2.714760         1.024152
 H        -1.910765         2.271607        -0.133952
 H        -0.333020         1.296235         2.770011
 H        -1.341682        -0.436529         2.810515
 H        -5.259255         1.613321         0.928539
 H        -4.027493         2.667042         0.295597
 H        -4.349570        -0.170042        -0.282096
 H        -3.531187         0.901652        -1.204726
 H        -2.736434        -0.868706         1.157627
