19
Iteration:  4786charge 0 multiplicity 1
 O         0.146513        -0.217239         0.143029
 C        -0.929205         0.411284         0.795023
 C        -1.376974         1.877616         0.539933
 C        -2.271915         1.245090         1.682812
 C        -1.145737         0.618806         2.353536
 O        -3.443393         1.815600         1.980832
 C        -4.303775         1.660794         0.905632
 C        -3.746898         0.443109        -0.052765
 C        -2.422679        -0.058236         0.744480
 H         0.771634         0.487679        -0.159713
 H        -0.636837         2.653623         0.992398
 H        -1.767466         2.208235        -0.414886
 H        -0.382646         1.178124         2.935621
 H        -1.252715        -0.252937         3.062626
 H        -5.305568         1.402612         1.301029
 H        -4.411823         2.703127         0.315994
 H        -4.367445        -0.400327        -0.274185
 H        -3.453028         0.704879        -1.090001
 H        -2.739584        -0.849465         1.360483
