19
Iteration:  3923
 O         0.247953        -0.309502         0.237367
 C        -0.821002         0.370599         0.808247
 C        -1.183797         1.933883         0.522495
 C        -2.280252         1.362206         1.571857
 C        -1.105691         0.587309         2.349531
 O        -3.492675         1.825513         1.951200
 C        -4.518797         1.274088         1.026922
 C        -3.807038         0.713585        -0.124130
 C        -2.511888         0.165282         0.649527
 H         0.805465        -0.650577         0.905644
 H        -0.437607         2.688296         0.909450
 H        -1.458278         2.258805        -0.493401
 H        -0.314179         1.218093         2.870602
 H        -1.556948        -0.310344         2.826450
 H        -5.142263         0.570463         1.607517
 H        -5.101589         2.185150         0.661335
 H        -4.245645        -0.102967        -0.627363
 H        -3.694788         1.502526        -0.923158
 H        -2.854805        -0.701077         1.221822
