19
Iteration:  3538charge 0 multiplicity 1
 O         0.040921        -0.414439         0.075379
 C        -0.917581         0.451410         0.773308
 C        -1.263481         1.990858         0.702503
 C        -2.268926         1.299864         1.636683
 C        -1.063656         0.630509         2.415160
 O        -3.509005         1.826837         2.027037
 C        -4.417728         1.385281         0.909618
 C        -3.635758         0.618230        -0.247542
 C        -2.431014         0.144493         0.742025
 H         0.801348        -0.350228         0.697942
 H        -0.569116         2.632185         1.259602
 H        -1.590780         2.441254        -0.195902
 H        -0.450910         1.282329         2.988064
 H        -1.165229        -0.350124         2.833077
 H        -5.257568         0.805811         1.219808
 H        -4.884597         2.189159         0.421076
 H        -4.146300        -0.238167        -0.738226
 H        -3.188222         1.368755        -0.886384
 H        -2.748281        -0.832695         1.210363
