19
Iteration:   604charge 0 multiplicity 1
 O         0.048172        -0.184625        -0.070847
 C        -0.886641         0.390306         0.849077
 C        -1.279728         1.857892         0.830052
 C        -2.318105         1.182003         1.762735
 C        -1.141002         0.473673         2.431588
 O        -3.522012         1.822846         1.978673
 C        -4.376686         1.531284         0.825976
 C        -3.561419         0.585770        -0.218560
 C        -2.420059         0.124558         0.741120
 H         0.795148         0.483280        -0.012505
 H        -0.742348         2.616457         1.403678
 H        -1.659164         2.492076        -0.103197
 H        -0.360571         1.134429         2.956098
 H        -1.260931        -0.446430         3.103780
 H        -5.376747         1.196270         1.133328
 H        -4.564431         2.515150         0.313057
 H        -4.083670        -0.370845        -0.451135
 H        -3.237194         1.001949        -1.222156
 H        -2.791228        -0.788200         1.318826
