19
Iteration:  3868charge 0 multiplicity 1
 O         0.085344        -0.198328         0.077284
 C        -0.844560         0.478352         0.796741
 C        -1.180255         1.932792         0.667972
 C        -2.278934         1.247372         1.679157
 C        -1.137464         0.580244         2.451475
 O        -3.464450         1.936397         1.849907
 C        -4.441566         1.356802         0.969860
 C        -3.684858         0.564207        -0.150814
 C        -2.484945         0.062802         0.735841
 H         0.094422        -1.194597         0.247948
 H        -0.549174         2.762680         1.032506
 H        -1.666626         2.148082        -0.312455
 H        -0.417200         1.155592         3.115658
 H        -1.242313        -0.389294         2.970111
 H        -4.900404         0.530505         1.546751
 H        -5.141028         2.195037         0.646672
 H        -4.203074        -0.235321        -0.616897
 H        -3.216967         1.226240        -0.951177
 H        -2.720980        -0.868265         1.308336
