19
Iteration:  3869
 O         0.087551        -0.196232         0.080799
 C        -0.847464         0.478151         0.794291
 C        -1.184936         1.931659         0.671857
 C        -2.266928         1.247724         1.677478
 C        -1.138576         0.576469         2.451896
 O        -3.461089         1.934913         1.842321
 C        -4.442192         1.356791         0.974698
 C        -3.692719         0.563996        -0.148936
 C        -2.488393         0.065784         0.735481
 H         0.093260        -1.151368         0.304451
 H        -0.570164         2.764876         1.034032
 H        -1.662013         2.127537        -0.284910
 H        -0.422242         1.153898         3.067964
 H        -1.275495        -0.383239         2.934909
 H        -4.861984         0.515316         1.544423
 H        -5.102888         2.196362         0.645799
 H        -4.248400        -0.222053        -0.644350
 H        -3.205458         1.235558        -0.957070
 H        -2.693570        -0.892144         1.328979
