19
Iteration:  1475charge 0 multiplicity 1
 O         0.041549        -0.305851         0.195419
 C        -0.904633         0.479876         0.747311
 C        -1.273730         1.965385         0.684164
 C        -2.342245         1.193712         1.623694
 C        -1.077817         0.524494         2.275354
 O        -3.565628         1.702596         2.090448
 C        -4.350142         1.597311         0.874228
 C        -3.563249         0.642504        -0.133718
 C        -2.435715         0.089201         0.653513
 H         0.898885         0.125737         0.329089
 H        -0.488201         2.569662         1.262687
 H        -1.759013         2.342605        -0.239869
 H        -0.497597         1.358948         2.805246
 H        -1.140272        -0.376156         2.845769
 H        -5.215050         1.032708         1.165306
 H        -4.696268         2.562834         0.511217
 H        -4.323736        -0.196847        -0.345957
 H        -3.104271         1.124989        -0.999296
 H        -2.588415        -1.012173         1.032371
