19
Iteration:  4075
 O         0.171377        -0.206779         0.186546
 C        -0.933571         0.420648         0.718530
 C        -1.465104         1.912110         0.545853
 C        -2.303029         1.255579         1.606800
 C        -1.081845         0.734329         2.295320
 O        -3.521959         1.628373         2.115859
 C        -4.222788         1.664583         0.826716
 C        -3.699693         0.505819        -0.062845
 C        -2.452740        -0.042612         0.758298
 H         0.558616        -0.774130         0.828420
 H        -0.588541         2.561706         0.790418
 H        -2.031831         2.046384        -0.368062
 H        -0.264113         1.482202         2.668022
 H        -1.212412        -0.033382         3.146766
 H        -5.301602         1.643971         0.882106
 H        -3.983850         2.664073         0.396995
 H        -4.380498        -0.176516        -0.306896
 H        -3.351911         1.100401        -0.857816
 H        -2.594648        -0.876010         1.351561
