19
Iteration:  1683
 O         0.069651        -0.279629         0.034455
 C        -0.874452         0.420965         0.773607
 C        -1.200050         2.001827         0.792622
 C        -2.280439         1.332810         1.650292
 C        -1.149146         0.455225         2.402741
 O        -3.499850         1.842386         1.990475
 C        -4.467117         1.413559         0.898119
 C        -3.646194         0.615655        -0.188849
 C        -2.431459         0.044070         0.742935
 H         0.932820         0.107084         0.364281
 H        -0.498757         2.690821         1.158340
 H        -1.560763         2.266206        -0.245312
 H        -0.345085         1.115276         2.962659
 H        -1.183553        -0.567403         2.769214
 H        -5.360941         0.940718         1.260069
 H        -4.944183         2.327468         0.355042
 H        -4.218359        -0.053953        -0.823617
 H        -3.285449         1.394571        -0.797049
 H        -2.732476        -0.840637         1.370958
