19
Iteration:   677
 O         0.034438        -0.387939         0.214838
 C        -0.844086         0.493845         0.710832
 C        -1.132555         2.037963         0.773324
 C        -2.298826         1.198456         1.638126
 C        -1.106242         0.538429         2.344012
 O        -3.514934         1.800732         1.964130
 C        -4.470214         1.338619         0.994205
 C        -3.686465         0.728449        -0.227814
 C        -2.414202         0.200611         0.572777
 H         0.934655        -0.154948         0.653773
 H        -0.416434         2.598560         1.412142
 H        -1.611947         2.615723        -0.057854
 H        -0.452448         1.105210         2.905525
 H        -1.208617        -0.465277         2.836304
 H        -5.052998         0.509498         1.423424
 H        -5.183461         2.096175         0.725454
 H        -4.165648        -0.190460        -0.468450
 H        -3.752238         1.481138        -1.115085
 H        -2.636352        -0.841021         0.783962
