19
Iteration:  4506charge 0 multiplicity 1
 O         0.168030        -0.246955         0.136058
 C        -0.897712         0.476814         0.706047
 C        -1.176224         1.958209         0.620020
 C        -2.276117         1.252414         1.651850
 C        -1.145598         0.610899         2.434206
 O        -3.467949         1.877404         1.966163
 C        -4.432928         1.454635         0.954496
 C        -3.710270         0.505586        -0.091050
 C        -2.450615         0.064781         0.666175
 H        -0.209711        -1.095165         0.029303
 H        -0.355355         2.520948         1.186492
 H        -1.775980         2.441824        -0.181673
 H        -0.438245         1.342806         2.915407
 H        -1.364902        -0.337947         3.008539
 H        -5.270567         0.898772         1.491387
 H        -4.793569         2.234321         0.279415
 H        -4.347111        -0.346362        -0.350183
 H        -3.574754         0.973694        -0.990644
 H        -2.650638        -0.794678         1.305447
