19
Iteration:  3944
 O         0.090272        -0.322511         0.239557
 C        -0.907653         0.457972         0.708278
 C        -1.217591         1.937533         0.584271
 C        -2.344580         1.319705         1.573734
 C        -1.115760         0.663470         2.316014
 O        -3.481353         1.812891         2.012510
 C        -4.456252         1.338297         1.081263
 C        -3.596844         0.633567        -0.205555
 C        -2.420422         0.077229         0.637478
 H         0.469275        -0.869888         0.973041
 H        -0.498961         2.649902         1.073894
 H        -1.574310         2.337165        -0.400992
 H        -0.439092         1.482860         2.751349
 H        -1.455458        -0.085249         3.070865
 H        -4.965881         0.564342         1.573776
 H        -5.027991         2.206112         0.723613
 H        -4.262254        -0.017592        -0.674604
 H        -3.330782         1.388838        -0.953887
 H        -2.610119        -0.839374         1.112352
