19
Iteration:   429
 O         0.100024        -0.225873         0.134115
 C        -0.957435         0.453637         0.755477
 C        -1.201437         1.957267         0.708858
 C        -2.362759         1.216283         1.770667
 C        -1.071348         0.517883         2.365412
 O        -3.575578         1.812213         2.029109
 C        -4.426031         1.369549         0.853014
 C        -3.461310         0.729679        -0.183838
 C        -2.466784         0.116583         0.663622
 H        -0.172672        -1.183406        -0.074499
 H        -0.464610         2.450209         1.356016
 H        -1.340595         2.458758        -0.370795
 H        -0.367526         1.095243         2.985121
 H        -1.316485        -0.548940         2.805609
 H        -5.184977         0.618643         1.161786
 H        -5.040981         2.282117         0.485761
 H        -4.082466         0.193011        -0.881861
 H        -3.048588         1.617713        -0.694398
 H        -2.670387        -0.892344         1.054097
