19
Iteration:  2343
 O         0.029666        -0.343220         0.244396
 C        -0.855763         0.483483         0.783993
 C        -1.265959         1.992638         0.737401
 C        -2.257934         1.251623         1.675065
 C        -1.066579         0.474763         2.319170
 O        -3.510006         1.806911         2.031332
 C        -4.380345         1.390585         0.923764
 C        -3.642155         0.697709        -0.271707
 C        -2.433584         0.177356         0.631900
 H        -0.060885        -0.257483        -0.677567
 H        -0.552144         2.658876         1.170893
 H        -1.832352         2.309047        -0.131583
 H        -0.340082         0.835782         2.953227
 H        -1.304267        -0.476554         2.824137
 H        -5.216940         0.881098         1.376705
 H        -4.729763         2.360979         0.532380
 H        -4.241894        -0.256266        -0.600583
 H        -3.182298         1.398161        -1.052141
 H        -2.686357        -0.694097         1.237850
