19
Iteration:  3376
 O         0.123195        -0.235300         0.055407
 C        -0.955666         0.308016         0.805369
 C        -1.310286         1.949640         0.699213
 C        -2.283875         1.355748         1.659218
 C        -1.167128         0.482154         2.373831
 O        -3.560335         1.848447         1.971477
 C        -4.372285         1.451506         0.941461
 C        -3.483426         0.667964        -0.182627
 C        -2.438800         0.097347         0.718411
 H         0.600390        -0.982314         0.329277
 H        -0.530330         2.578443         1.066752
 H        -1.702636         2.333503        -0.183794
 H        -0.357031         1.052520         2.901364
 H        -1.510417        -0.421748         3.012597
 H        -5.126792         0.803322         1.449458
 H        -5.067037         2.166912         0.533479
 H        -4.042922        -0.074442        -0.690362
 H        -3.087842         1.438918        -0.825975
 H        -2.707495        -0.651631         1.425074
