19
Iteration:  2415
 O         0.184194        -0.323469         0.231127
 C        -0.954030         0.422804         0.739423
 C        -1.240917         1.935671         0.753785
 C        -2.249098         1.329874         1.657792
 C        -1.206662         0.457359         2.291420
 O        -3.480577         1.956363         1.966470
 C        -4.388217         1.369758         1.003876
 C        -3.662252         0.689249        -0.174025
 C        -2.462607         0.071903         0.596381
 H         0.600163         0.058708        -0.520959
 H        -0.526146         2.601927         1.271060
 H        -1.760393         2.281481        -0.175139
 H        -0.368188         0.688496         2.984203
 H        -1.423991        -0.519047         2.641112
 H        -4.970695         0.565216         1.596266
 H        -5.082893         2.080012         0.583166
 H        -4.333471         0.035303        -0.649572
 H        -3.444659         1.511675        -0.714516
 H        -2.641100        -0.947649         1.034883
