19
Iteration:   613charge 0 multiplicity 1
 O         0.026394        -0.152292        -0.035783
 C        -0.933163         0.350932         0.868484
 C        -1.224488         1.899902         0.782548
 C        -2.254539         1.190246         1.702946
 C        -1.128981         0.530102         2.513100
 O        -3.547398         1.836964         2.040762
 C        -4.354149         1.514712         0.853632
 C        -3.588162         0.593333        -0.259927
 C        -2.438112         0.036871         0.653783
 H         0.887997         0.363913         0.051211
 H        -0.478662         2.460167         1.232162
 H        -1.868530         2.195180        -0.092133
 H        -0.470976         1.263413         2.952655
 H        -1.382405        -0.405050         3.141547
 H        -5.259674         1.033410         1.228243
 H        -4.587737         2.468227         0.402841
 H        -4.113326        -0.262931        -0.679667
 H        -3.217913         1.283100        -1.146903
 H        -2.780598        -0.952443         1.087717
