19
Iteration:  4774
 O         0.117275        -0.229844         0.089933
 C        -0.858252         0.409945         0.806451
 C        -1.421869         1.840501         0.574483
 C        -2.288175         1.219486         1.623942
 C        -0.998464         0.594023         2.458919
 O        -3.474451         1.867372         2.065238
 C        -4.347062         1.627191         0.793133
 C        -3.684596         0.482466        -0.071988
 C        -2.497412        -0.022336         0.771569
 H         0.916832         0.396152         0.020586
 H        -0.862423         2.810400         0.829149
 H        -1.936730         1.871027        -0.402076
 H        -0.400252         1.429296         2.882046
 H        -1.266195        -0.397983         2.955018
 H        -5.352832         1.413104         1.182817
 H        -4.378712         2.582888         0.176787
 H        -4.450576        -0.337797        -0.215417
 H        -3.463150         0.982733        -0.983892
 H        -2.602080        -0.973677         1.232047
