19
Iteration:  3506charge 0 multiplicity 1
 O         0.096422        -0.243631         0.132418
 C        -0.917849         0.406236         0.815382
 C        -1.257103         1.905078         0.590542
 C        -2.301727         1.272621         1.626894
 C        -1.148805         0.520903         2.391893
 O        -3.534713         1.803877         2.080362
 C        -4.359824         1.577267         0.830356
 C        -3.643592         0.549336        -0.090241
 C        -2.429766         0.043662         0.727112
 H         0.667926         0.551263        -0.127996
 H        -0.545732         2.542654         1.092248
 H        -1.534895         2.142713        -0.394686
 H        -0.462083         1.107807         3.022127
 H        -1.381445        -0.486130         2.751620
 H        -5.382285         1.341372         1.166765
 H        -4.317987         2.531515         0.298594
 H        -4.128369        -0.328497        -0.530635
 H        -3.291555         1.077510        -1.001482
 H        -2.574953        -0.952869         1.255495
