19
Iteration:   879
 O         0.029430        -0.254856        -0.050577
 C        -0.907950         0.435867         0.785161
 C        -1.221983         1.975403         0.861339
 C        -2.347447         1.209438         1.700172
 C        -1.106876         0.560419         2.398812
 O        -3.630653         1.724060         2.155278
 C        -4.256039         1.608829         0.756622
 C        -3.600254         0.468247        -0.194545
 C        -2.443022         0.145667         0.680099
 H         0.996219         0.098592        -0.018078
 H        -0.481961         2.634109         1.491562
 H        -1.447412         2.513418        -0.037173
 H        -0.271110         1.148412         2.909898
 H        -1.462837        -0.309582         2.927240
 H        -5.316718         1.415945         0.888167
 H        -4.135650         2.483579         0.089643
 H        -4.314670        -0.520326        -0.192086
 H        -3.404146         0.817850        -1.210618
 H        -2.613279        -0.843922         1.258424
