19
Iteration:  3430charge 0 multiplicity 1
 O         0.166401        -0.219803         0.103250
 C        -0.887022         0.445026         0.751224
 C        -1.353740         1.932128         0.696192
 C        -2.281557         1.289266         1.670428
 C        -1.124988         0.571459         2.349357
 O        -3.624873         1.610525         2.104604
 C        -4.234748         1.696335         0.703297
 C        -3.646539         0.584464        -0.067145
 C        -2.399335         0.056036         0.760697
 H        -0.138470        -0.977545        -0.335241
 H        -0.734192         2.643819         1.184196
 H        -1.598756         2.281004        -0.234934
 H        -0.404540         1.139465         3.009137
 H        -1.485806        -0.366781         2.898793
 H        -5.308116         1.547376         0.953782
 H        -3.912806         2.637432         0.206246
 H        -4.310679        -0.283710        -0.064498
 H        -3.662228         0.804410        -1.155382
 H        -2.633315        -0.777412         1.480448
