19
Iteration:  3582charge 0 multiplicity 1
 O         0.066357        -0.266808         0.145100
 C        -0.941237         0.394322         0.798003
 C        -1.129538         1.972235         0.643714
 C        -2.278499         1.326538         1.664592
 C        -1.168563         0.538694         2.390742
 O        -3.422487         1.940249         1.958111
 C        -4.411652         1.173743         0.984528
 C        -3.647967         0.695993        -0.249080
 C        -2.526982         0.167900         0.649131
 H         0.658726        -0.875545         0.641284
 H        -0.338519         2.555616         1.139767
 H        -1.489124         2.294501        -0.291793
 H        -0.415197         1.106055         2.883943
 H        -1.448927        -0.260770         3.045186
 H        -4.922936         0.442454         1.566786
 H        -5.204398         1.845969         0.802785
 H        -4.145946        -0.215878        -0.688205
 H        -3.312985         1.591007        -0.859513
 H        -3.090829        -0.685208         1.153836
