19
Iteration:  2128charge 0 multiplicity 1
 O         0.164305        -0.342548         0.185223
 C        -0.919502         0.430555         0.725924
 C        -1.153669         2.017464         0.774421
 C        -2.297442         1.289630         1.618040
 C        -1.230219         0.521964         2.349241
 O        -3.542867         1.792687         2.017895
 C        -4.456296         1.451659         0.976587
 C        -3.556620         0.676990        -0.155646
 C        -2.394667         0.085016         0.603771
 H        -0.059272        -0.532122        -0.797354
 H        -0.375831         2.529251         1.443848
 H        -1.443212         2.618746        -0.179767
 H        -0.280140         1.039911         2.828999
 H        -1.521415        -0.404383         2.707018
 H        -5.223826         0.848407         1.543800
 H        -5.073760         2.312728         0.676109
 H        -4.248943        -0.161130        -0.717204
 H        -3.455792         1.457811        -0.976312
 H        -2.816100        -0.795595         1.151516
