19
Iteration:  1807
 O         0.100770        -0.251031         0.009537
 C        -0.925293         0.401852         0.724191
 C        -1.242718         1.899689         0.646333
 C        -2.301587         1.264511         1.726110
 C        -1.131813         0.521871         2.442370
 O        -3.532324         1.877858         2.032331
 C        -4.416100         1.470093         0.953821
 C        -3.544067         0.674714        -0.212275
 C        -2.452599         0.032762         0.722477
 H         0.898204        -0.208137         0.603389
 H        -0.785003         2.671498         1.399075
 H        -1.630508         2.272889        -0.291687
 H        -0.445774         1.095696         2.997071
 H        -1.310665        -0.501945         3.029484
 H        -5.195184         0.717830         1.263068
 H        -4.992753         2.209972         0.381519
 H        -4.131491        -0.160774        -0.664574
 H        -3.142226         1.390889        -1.029731
 H        -2.853078        -0.902918         1.233624
