19
Iteration:  2111charge 0 multiplicity 1
 O         0.123735        -0.278403         0.244354
 C        -0.922923         0.454970         0.784663
 C        -1.139583         1.925844         0.737145
 C        -2.283162         1.298552         1.669261
 C        -1.070256         0.427894         2.287949
 O        -3.487937         1.872142         2.009093
 C        -4.461908         1.306933         0.942844
 C        -3.651311         0.713645        -0.228604
 C        -2.533532         0.210550         0.652149
 H         0.047554        -0.473062        -0.727031
 H        -0.391397         2.503335         1.244480
 H        -1.461218         2.320136        -0.201883
 H        -0.512856         1.002117         2.939683
 H        -1.357133        -0.549425         2.868386
 H        -5.122655         0.460045         1.150198
 H        -5.029097         2.184519         0.614076
 H        -4.337517         0.038480        -0.726006
 H        -3.202148         1.538017        -0.786080
 H        -2.713216        -0.782576         1.065172
