19
Iteration:  2834
 O         0.000699        -0.289359         0.069698
 C        -0.936877         0.479518         0.729979
 C        -1.379301         1.984873         0.703521
 C        -2.290685         1.254587         1.726177
 C        -1.098456         0.518975         2.364529
 O        -3.508791         1.718795         2.095949
 C        -4.333914         1.604514         0.793706
 C        -3.546323         0.547461        -0.191281
 C        -2.391543         0.107822         0.759482
 H         0.882024        -0.348172         0.599515
 H        -0.717032         2.711651         1.051729
 H        -1.618238         2.350829        -0.268354
 H        -0.243825         0.956631         2.918588
 H        -1.200695        -0.505707         2.934742
 H        -5.378311         1.344421         1.179479
 H        -4.437374         2.565788         0.288559
 H        -4.280982        -0.264595        -0.406759
 H        -3.254787         1.024302        -1.159685
 H        -2.566149        -0.884493         1.211807
