19
Iteration:   306
 O         0.146516        -0.190469         0.108292
 C        -0.992476         0.396642         0.757267
 C        -1.242526         1.923576         0.778000
 C        -2.289020         1.329612         1.757705
 C        -1.144949         0.413480         2.388771
 O        -3.587913         1.741393         2.049447
 C        -4.412831         1.444321         0.833211
 C        -3.418875         0.754998        -0.263023
 C        -2.482181         0.089882         0.688990
 H        -0.174901        -0.764260        -0.695250
 H        -0.434729         2.651731         1.232590
 H        -1.631186         2.330515        -0.097871
 H        -0.282447         0.841044         2.978836
 H        -1.481803        -0.400651         2.962180
 H        -5.201634         0.816653         1.301117
 H        -4.798052         2.353154         0.499823
 H        -3.939470         0.085061        -0.831584
 H        -2.946401         1.438522        -0.902356
 H        -2.914816        -0.598875         1.374540
