19
Iteration:   664
 O         0.113963        -0.438247         0.206555
 C        -0.913754         0.492643         0.771104
 C        -1.231959         2.031873         0.735783
 C        -2.249472         1.329495         1.731208
 C        -1.017018         0.489975         2.330797
 O        -3.563964         1.778713         2.048170
 C        -4.503882         1.330078         0.897214
 C        -3.736938         0.749423        -0.260787
 C        -2.379553         0.195158         0.563299
 H         0.956747        -0.167992         0.497539
 H        -0.591586         2.771829         1.393673
 H        -1.484927         2.360600        -0.239789
 H        -0.141316         0.981467         2.704650
 H        -1.327001        -0.472302         2.725060
 H        -5.157111         0.579912         1.393175
 H        -5.030230         2.260608         0.693837
 H        -4.289034        -0.041639        -0.728960
 H        -3.438862         1.389533        -1.112764
 H        -2.573078        -0.739721         1.009295
