19
Iteration:  2133
 O         0.165206        -0.362365         0.151190
 C        -0.910667         0.456187         0.751911
 C        -1.209437         1.989100         0.796433
 C        -2.309680         1.334295         1.608503
 C        -1.222517         0.549612         2.356963
 O        -3.496192         1.758713         2.019534
 C        -4.480756         1.485328         0.963624
 C        -3.557797         0.640904        -0.135129
 C        -2.362113         0.103271         0.568068
 H         0.035569        -0.556130        -0.776734
 H        -0.424503         2.446274         1.365291
 H        -1.498521         2.488005        -0.096755
 H        -0.515352         1.004947         2.968662
 H        -1.535755        -0.514176         2.806647
 H        -5.296747         0.789541         1.280942
 H        -4.968533         2.420503         0.628153
 H        -4.347632        -0.114998        -0.533426
 H        -3.414973         1.478394        -0.849039
 H        -2.756136        -0.692757         1.186169
