19
Iteration:   474
 O         0.189141        -0.258286         0.094058
 C        -0.847517         0.486253         0.772921
 C        -1.149740         1.960968         0.808085
 C        -2.375224         1.227083         1.706532
 C        -1.194155         0.437887         2.370002
 O        -3.597815         1.869928         2.104047
 C        -4.381752         1.504217         0.802129
 C        -3.649482         0.564096        -0.174128
 C        -2.397160         0.088432         0.659620
 H         0.050940         0.045087        -0.879242
 H        -0.475340         2.612771         1.390946
 H        -1.651415         2.418938        -0.207681
 H        -0.488515         1.020359         3.003965
 H        -1.309355        -0.623816         2.847417
 H        -5.373971         1.149201         1.120289
 H        -4.635088         2.499355         0.258379
 H        -4.178367        -0.413981        -0.273913
 H        -3.602769         1.020455        -1.177430
 H        -2.515922        -0.943377         1.048037
