19
Iteration:   798charge 0 multiplicity 1
 O         0.140564        -0.199225         0.138664
 C        -0.967547         0.392042         0.795218
 C        -1.266129         1.870376         0.675450
 C        -2.319502         1.240995         1.685732
 C        -1.094625         0.549725         2.333651
 O        -3.600478         1.582082         2.047295
 C        -4.308584         1.696386         0.822504
 C        -3.614372         0.666686        -0.123887
 C        -2.460407         0.045925         0.749402
 H         0.822010         0.474717        -0.070870
 H        -0.549360         2.528547         1.129332
 H        -1.707092         2.176465        -0.368179
 H        -0.362844         1.224800         2.696957
 H        -1.133065        -0.391135         2.938950
 H        -5.329490         1.404216         1.130983
 H        -4.345425         2.660675         0.277807
 H        -4.343834        -0.119499        -0.321795
 H        -3.325374         1.100746        -1.142598
 H        -2.661375        -0.945127         1.137496
