19
Iteration:  2976charge 0 multiplicity 1
 O         0.080091        -0.224655         0.053863
 C        -1.018908         0.377434         0.813697
 C        -1.312408         1.947400         0.683274
 C        -2.261595         1.253714         1.684316
 C        -1.106937         0.652654         2.373839
 O        -3.518603         1.772178         2.089075
 C        -4.292389         1.427210         0.833575
 C        -3.505721         0.666960        -0.181098
 C        -2.488760         0.074292         0.702174
 H         0.146435        -1.139537         0.467569
 H        -0.494101         2.477604         1.195048
 H        -1.585416         2.395220        -0.265056
 H        -0.147225         1.173269         2.798851
 H        -1.549088        -0.230758         2.960403
 H        -5.240667         0.979290         1.362922
 H        -4.777271         2.320698         0.409240
 H        -4.263916        -0.075200        -0.480927
 H        -3.065341         1.207230        -1.104130
 H        -2.828627        -0.862807         1.084185
