19
Iteration:  1198charge 0 multiplicity 1
 O         0.195393        -0.214228         0.056442
 C        -0.900797         0.375656         0.810761
 C        -1.340376         1.906666         0.684377
 C        -2.313343         1.255872         1.657791
 C        -1.111268         0.541851         2.396960
 O        -3.555124         1.678874         2.091897
 C        -4.325925         1.689402         0.822735
 C        -3.670305         0.534200        -0.145404
 C        -2.482594         0.035240         0.666621
 H         1.021910         0.184165         0.515242
 H        -0.805531         2.683546         1.227207
 H        -1.891815         2.254879        -0.274848
 H        -0.401584         1.140142         2.843645
 H        -1.300277        -0.365950         3.063162
 H        -5.350747         1.709908         1.154689
 H        -4.059434         2.674539         0.403169
 H        -4.197436        -0.295251        -0.538399
 H        -3.386365         1.238729        -1.023072
 H        -2.803039        -0.939930         1.161461
