19
Iteration:  2517
 O         0.131945        -0.187639         0.083152
 C        -0.843239         0.399458         0.782372
 C        -1.293413         1.890257         0.819907
 C        -2.245064         1.279226         1.767901
 C        -1.061839         0.470377         2.383802
 O        -3.566269         1.785298         2.013200
 C        -4.384490         1.594370         0.790662
 C        -3.681336         0.566251        -0.142129
 C        -2.443655         0.126477         0.700566
 H        -0.217389        -0.715874        -0.686902
 H        -0.582662         2.686749         1.239197
 H        -1.461810         2.297821        -0.267017
 H        -0.312957         1.014290         2.781690
 H        -1.355499        -0.555012         2.785723
 H        -5.429064         1.240487         0.965988
 H        -4.542315         2.618844         0.393946
 H        -4.261414        -0.340715        -0.477473
 H        -3.523172         0.943607        -1.066877
 H        -2.586803        -0.868189         1.195884
