19
Iteration:  2966
 O         0.004522        -0.193232         0.089649
 C        -0.971881         0.461638         0.793932
 C        -1.223600         1.947188         0.629125
 C        -2.273282         1.332044         1.779695
 C        -1.110384         0.567518         2.400932
 O        -3.526153         1.700982         2.022178
 C        -4.315655         1.524533         0.892313
 C        -3.548405         0.575524        -0.214830
 C        -2.464122         0.034035         0.694671
 H         0.052882        -1.187970         0.276656
 H        -0.477713         2.657992         1.043479
 H        -1.507308         2.361416        -0.325651
 H        -0.333620         1.298592         2.933150
 H        -1.288986        -0.345140         3.057921
 H        -5.175996         0.881329         1.159677
 H        -4.446541         2.510674         0.497890
 H        -4.253811        -0.149599        -0.587310
 H        -3.276833         1.224310        -1.117862
 H        -2.723943        -0.885454         1.196810
