19
Iteration:   934charge 0 multiplicity 1
 O         0.212678        -0.241129         0.111542
 C        -0.989110         0.307650         0.790461
 C        -1.242616         1.846998         0.755357
 C        -2.328797         1.282219         1.712852
 C        -1.108691         0.558571         2.295154
 O        -3.565026         1.810754         2.082038
 C        -4.479032         1.476668         0.943408
 C        -3.586959         0.725788        -0.239929
 C        -2.451471         0.070024         0.600770
 H         1.005542         0.302641         0.457558
 H        -0.228045         2.383140         1.054244
 H        -1.475781         2.206884        -0.210748
 H        -0.254165         1.186145         2.605883
 H        -1.365641        -0.257092         2.973064
 H        -5.262774         0.885482         1.432690
 H        -4.951565         2.394278         0.539047
 H        -4.366367        -0.092109        -0.626586
 H        -3.260132         1.447702        -1.003055
 H        -2.631282        -0.993009         1.018250
