19
Iteration:  4690charge 0 multiplicity 1
 O         0.110777        -0.316240         0.104971
 C        -0.909969         0.418831         0.762508
 C        -1.291216         1.933533         0.624878
 C        -2.273309         1.296424         1.675624
 C        -1.062824         0.607803         2.344481
 O        -3.533187         1.823489         1.982452
 C        -4.391393         1.548242         0.837951
 C        -3.678579         0.490270        -0.042707
 C        -2.477760         0.048286         0.827726
 H         0.862621         0.207270        -0.097728
 H        -0.552468         2.579835         1.112922
 H        -1.621103         2.244374        -0.325832
 H        -0.289361         1.235434         2.724872
 H        -1.145103        -0.295185         2.927328
 H        -5.247513         1.097897         1.361790
 H        -4.632449         2.475329         0.220733
 H        -4.274915        -0.289987        -0.470095
 H        -3.349991         1.216735        -0.964991
 H        -2.638812        -0.916820         1.382236
