19
Iteration:   293charge 0 multiplicity 1
 O         0.098309        -0.216442         0.108184
 C        -0.896973         0.413119         0.841588
 C        -1.230928         1.973127         0.788822
 C        -2.256393         1.240278         1.713246
 C        -1.123065         0.453838         2.403950
 O        -3.599346         1.654251         2.031643
 C        -4.371035         1.512671         0.806593
 C        -3.553867         0.750245        -0.242969
 C        -2.435543         0.202840         0.706002
 H        -0.315793        -0.970629        -0.266479
 H        -0.367596         2.538254         1.172164
 H        -1.607587         2.452479        -0.116276
 H        -0.424588         1.062536         3.006001
 H        -1.326608        -0.561243         2.740581
 H        -5.240378         0.817338         0.949856
 H        -4.820701         2.451493         0.535173
 H        -4.167042        -0.053226        -0.687929
 H        -3.240300         1.368352        -1.073108
 H        -2.719131        -0.863982         0.937059
