19
Iteration:   237
 O         0.228195        -0.039638         0.145638
 C        -0.923264         0.396901         0.810220
 C        -1.302300         1.893959         0.716450
 C        -2.307000         1.112511         1.679323
 C        -1.133361         0.271674         2.360503
 O        -3.609969         1.666520         2.095658
 C        -4.288263         1.798557         0.769988
 C        -3.646427         0.653902        -0.175594
 C        -2.528337         0.107834         0.637029
 H         0.857282        -0.268680         0.841363
 H        -0.597223         2.594794         1.054724
 H        -1.727933         2.043605        -0.359878
 H        -0.379108         0.804780         2.898251
 H        -1.185921        -0.772668         2.810354
 H        -5.344970         1.567670         0.945136
 H        -4.087980         2.805008         0.417483
 H        -4.359413        -0.210504        -0.455619
 H        -3.388498         1.291141        -1.054861
 H        -2.797218        -0.911672         1.102768
