19
Iteration:  2884charge 0 multiplicity 1
 O         0.217832        -0.073364         0.049094
 C        -0.877946         0.407610         0.772321
 C        -1.371183         1.844286         0.644895
 C        -2.283187         1.205739         1.722928
 C        -1.133860         0.544122         2.381106
 O        -3.557307         1.703392         2.101771
 C        -4.252964         1.766753         0.791185
 C        -3.637779         0.480339        -0.099913
 C        -2.506369        -0.002699         0.716748
 H         0.325061        -1.048049         0.128199
 H        -0.591249         2.635615         0.874342
 H        -1.949421         2.197394        -0.262224
 H        -0.446404         1.070824         2.981713
 H        -1.397848        -0.330115         2.958555
 H        -5.363021         1.735591         0.913295
 H        -4.209141         2.815223         0.354289
 H        -4.505145        -0.250044        -0.162565
 H        -3.396263         0.764052        -1.097545
 H        -2.931438        -0.825825         1.381936
