19
Iteration:   721charge 0 multiplicity 1
 O         0.133258        -0.219108         0.013673
 C        -0.972798         0.390363         0.801136
 C        -1.175002         1.817154         0.722431
 C        -2.266333         1.293126         1.760627
 C        -1.149655         0.422981         2.435240
 O        -3.573188         1.951297         1.910040
 C        -4.430339         1.281231         0.967739
 C        -3.552636         0.749841        -0.201392
 C        -2.491609         0.195538         0.699650
 H         1.000395         0.151301         0.445787
 H        -0.297676         2.430340         0.976470
 H        -1.668511         2.130555        -0.293252
 H        -0.527143         1.043756         2.959463
 H        -1.451953        -0.580674         2.879039
 H        -4.938914         0.344095         1.316926
 H        -5.256112         1.938774         0.743223
 H        -4.055439        -0.056001        -0.707127
 H        -3.105018         1.528644        -0.972054
 H        -2.866831        -0.644823         1.274739
