19
Iteration:  1331
 O         0.115003        -0.285671         0.140971
 C        -0.880177         0.399479         0.795680
 C        -1.202059         1.946544         0.678118
 C        -2.316822         1.230432         1.654409
 C        -1.151889         0.571025         2.412869
 O        -3.513251         1.848258         2.059731
 C        -4.509930         1.401416         1.003692
 C        -3.626680         0.709339        -0.230755
 C        -2.395939         0.064066         0.541210
 H         1.023438        -0.011765         0.535985
 H        -0.357662         2.682804         1.000277
 H        -1.621081         2.218417        -0.281373
 H        -0.325186         0.964709         2.898777
 H        -1.384784        -0.399523         2.852854
 H        -5.235445         0.717563         1.344460
 H        -4.839746         2.297583         0.585659
 H        -4.278591        -0.108962        -0.670354
 H        -3.422081         1.505172        -0.948194
 H        -2.850010        -0.938244         0.843169
