19
Iteration:  3908
 O         0.292911        -0.262639         0.219525
 C        -0.879038         0.450044         0.732091
 C        -1.104228         1.856166         0.566712
 C        -2.261013         1.320048         1.576641
 C        -1.148792         0.506033         2.264750
 O        -3.586139         1.988515         1.991440
 C        -4.529349         1.346304         1.067971
 C        -3.730651         0.599382        -0.183551
 C        -2.509802         0.133601         0.709251
 H         0.722815        -0.517987         1.041234
 H        -0.370644         2.561353         0.969826
 H        -1.482867         2.120462        -0.467461
 H        -0.383374         1.057157         2.904444
 H        -1.404954        -0.456469         2.825508
 H        -5.116777         0.576752         1.559483
 H        -5.418048         1.966140         0.929982
 H        -4.496014        -0.099045        -0.585107
 H        -3.390424         1.251876        -0.925877
 H        -2.672011        -0.805064         1.192422
