19
Iteration:   116charge 0 multiplicity 1
 O         0.180344        -0.128122         0.143176
 C        -0.917842         0.363263         0.791785
 C        -1.207739         1.796376         0.775771
 C        -2.415197         1.178987         1.707328
 C        -1.261914         0.340249         2.371718
 O        -3.489381         1.816009         1.977943
 C        -4.437886         1.516558         0.947557
 C        -3.467344         0.810639        -0.250323
 C        -2.492177         0.125769         0.641925
 H         0.893723         0.451544         0.239823
 H        -0.444599         2.422501         1.238892
 H        -1.590014         2.199252        -0.343595
 H        -0.517415         0.878598         2.961242
 H        -1.581808        -0.778166         2.576918
 H        -5.157443         0.780470         1.349257
 H        -4.947079         2.447776         0.701442
 H        -3.984969         0.052667        -0.941995
 H        -3.077695         1.669176        -0.894385
 H        -2.910463        -0.915465         0.981386
