19
Iteration:   206
 O         0.203236        -0.051651         0.014319
 C        -0.940559         0.345936         0.747919
 C        -1.423920         1.875268         0.888763
 C        -2.367795         1.062419         1.687171
 C        -1.199411         0.386663         2.440204
 O        -3.542444         1.703702         2.087483
 C        -4.150063         1.799714         0.704085
 C        -3.596971         0.656994        -0.163694
 C        -2.509492        -0.015515         0.664139
 H         1.003283         0.049090         0.592500
 H        -0.783359         2.592380         1.463385
 H        -1.739541         2.373037        -0.118863
 H        -0.499626         1.108616         2.810556
 H        -1.283459        -0.580783         2.939218
 H        -5.242178         1.607253         0.776493
 H        -4.026490         2.793466         0.382557
 H        -4.329888        -0.071034        -0.488823
 H        -3.314655         1.145160        -1.071999
 H        -2.764607        -0.997346         1.095272
