19
Iteration:   813charge 0 multiplicity 1
 O         0.206329        -0.202325         0.111945
 C        -0.909508         0.423311         0.660082
 C        -1.459777         1.916483         0.687013
 C        -2.321494         1.085811         1.716774
 C        -1.096503         0.557750         2.403305
 O        -3.532505         1.721304         2.075982
 C        -4.262719         1.732109         0.796185
 C        -3.604460         0.558156        -0.117893
 C        -2.528596        -0.052120         0.723663
 H         0.856859         0.463241         0.077109
 H        -0.747954         2.646885         1.197410
 H        -1.871813         2.442373        -0.166311
 H        -0.388770         1.267583         2.961067
 H        -1.407527        -0.317149         2.909695
 H        -5.342159         1.677767         0.933866
 H        -4.062459         2.780711         0.531140
 H        -4.391032        -0.183766        -0.569643
 H        -3.097218         1.074730        -0.926170
 H        -2.796723        -1.031277         1.250185
