19
Iteration:  4472charge 0 multiplicity 1
 O         0.102782        -0.218904         0.058540
 C        -0.893594         0.415105         0.876373
 C        -1.335467         1.818077         0.580038
 C        -2.264301         1.318238         1.572786
 C        -1.061739         0.627957         2.298666
 O        -3.570782         1.762765         2.071832
 C        -4.407185         1.519969         0.885775
 C        -3.521354         0.576285        -0.098665
 C        -2.471484         0.052549         0.778796
 H         0.418906        -0.964256         0.581115
 H        -0.517902         2.574535         0.909091
 H        -1.798440         2.314945        -0.308099
 H        -0.347407         1.336595         2.737922
 H        -1.251316        -0.224939         3.011030
 H        -5.428739         1.098458         1.125173
 H        -4.588621         2.566851         0.534079
 H        -4.146490        -0.173042        -0.468655
 H        -3.152029         1.238679        -0.848198
 H        -2.901596        -0.612892         1.544871
