19
Iteration:  1381charge 0 multiplicity 1
 O        -0.009889        -0.326559         0.130905
 C        -0.884774         0.423666         0.804361
 C        -1.233228         1.918937         0.725493
 C        -2.304154         1.311717         1.703228
 C        -1.112631         0.494016         2.359425
 O        -3.555652         1.867434         2.008371
 C        -4.416173         1.394236         0.944912
 C        -3.551871         0.651268        -0.171151
 C        -2.359065         0.154468         0.597038
 H         0.765458         0.228648         0.052556
 H        -0.627288         2.618838         1.176868
 H        -1.567547         2.204527        -0.309195
 H        -0.398502         1.132795         2.940503
 H        -1.340244        -0.462542         2.952403
 H        -5.039306         0.505602         1.308027
 H        -5.074597         2.228826         0.479531
 H        -4.209559        -0.041984        -0.609179
 H        -3.237667         1.406192        -0.930877
 H        -2.546990        -0.858417         0.787729
