19
Iteration:  4965charge 0 multiplicity 1
 O         0.232526        -0.313043         0.124489
 C        -0.914542         0.326317         0.797711
 C        -1.223179         1.803133         0.599281
 C        -2.303600         1.270092         1.685296
 C        -1.056924         0.686427         2.319348
 O        -3.513761         1.821160         2.027013
 C        -4.438116         1.481626         0.916042
 C        -3.651120         0.645157        -0.109730
 C        -2.550773         0.090706         0.761207
 H         0.272999         0.134488        -0.693896
 H        -0.584858         2.600132         0.941017
 H        -1.527431         2.247550        -0.383795
 H        -0.534855         1.438495         2.886326
 H        -1.331763        -0.109421         2.983856
 H        -5.196911         0.754913         1.412905
 H        -5.082263         2.407723         0.562952
 H        -4.432082         0.017573        -0.509712
 H        -3.227598         1.319415        -0.917413
 H        -2.851244        -0.793975         1.302374
