19
Iteration:  2546
 O         0.135365        -0.150920         0.120657
 C        -0.914776         0.439924         0.679934
 C        -1.224387         1.961019         0.717410
 C        -2.274531         1.217822         1.701646
 C        -1.213683         0.525411         2.408287
 O        -3.534979         1.689234         2.091287
 C        -4.296278         1.721890         0.826878
 C        -3.655530         0.466999        -0.126912
 C        -2.489315         0.020779         0.697998
 H        -0.086254        -0.521323        -0.699818
 H        -0.566228         2.573999         1.328307
 H        -1.413575         2.356271        -0.292902
 H        -0.408828         1.150630         2.978113
 H        -1.386140        -0.458323         2.763194
 H        -5.398526         1.486177         1.076010
 H        -4.078535         2.698486         0.443655
 H        -4.334078        -0.365423        -0.351029
 H        -3.285699         0.950790        -1.164582
 H        -2.490284        -0.934101         1.305839
