19
Iteration:  3167charge 0 multiplicity 1
 O         0.243886        -0.020335         0.158616
 C        -0.943709         0.395416         0.758466
 C        -1.375361         1.901491         0.608785
 C        -2.296622         1.233713         1.689467
 C        -1.101415         0.480324         2.323394
 O        -3.490519         1.741460         2.070834
 C        -4.255005         1.777035         0.773490
 C        -3.730278         0.477847        -0.065964
 C        -2.517529        -0.112528         0.743599
 H         0.339805        -0.951891         0.504807
 H        -0.662912         2.621161         0.950473
 H        -1.938090         2.221756        -0.291508
 H        -0.341001         1.068366         2.889851
 H        -1.359550        -0.528632         2.822840
 H        -5.383312         1.878559         0.886422
 H        -4.108698         2.643310         0.238544
 H        -4.450497        -0.325758        -0.247702
 H        -3.416271         0.857751        -0.990149
 H        -2.751614        -1.059545         1.227139
