19
Iteration:  3256charge 0 multiplicity 1
 O         0.076019        -0.222630        -0.008136
 C        -0.897143         0.458488         0.800850
 C        -1.264504         1.921815         0.693911
 C        -2.286838         1.261829         1.728260
 C        -1.105283         0.532254         2.428664
 O        -3.574492         1.820520         1.996160
 C        -4.355537         1.518718         0.864504
 C        -3.496299         0.590213        -0.158046
 C        -2.485848         0.093573         0.742981
 H         0.016624        -1.168504         0.360539
 H        -0.586827         2.563398         1.321773
 H        -1.582551         2.365352        -0.241845
 H        -0.313143         1.090881         2.922084
 H        -1.491657        -0.477886         2.843782
 H        -5.248988         0.869847         1.248095
 H        -4.863667         2.347546         0.406665
 H        -4.041319        -0.252201        -0.518882
 H        -3.140036         1.251295        -0.943207
 H        -2.737066        -0.872821         1.207975
