19
Iteration:  4107
 O         0.145638        -0.185088         0.112587
 C        -0.884497         0.455835         0.767597
 C        -1.286181         1.891230         0.550058
 C        -2.342165         1.234186         1.665670
 C        -1.046329         0.597704         2.346686
 O        -3.573205         1.822552         2.080573
 C        -4.370156         1.593202         0.809266
 C        -3.685893         0.460728        -0.044296
 C        -2.427501         0.028778         0.760240
 H         0.617732        -0.712469         0.766474
 H        -0.440028         2.648359         0.695927
 H        -1.780030         2.107369        -0.419976
 H        -0.243676         1.278723         2.813077
 H        -1.237712        -0.363416         2.935613
 H        -5.347839         1.235233         1.144090
 H        -4.368891         2.615360         0.353922
 H        -4.440750        -0.311448        -0.217354
 H        -3.534327         0.874078        -1.039124
 H        -2.536087        -0.909998         1.248339
