19
Iteration:  4704
 O        -0.000384        -0.396557         0.061614
 C        -0.879102         0.463596         0.737944
 C        -1.257180         1.948471         0.625941
 C        -2.288076         1.284117         1.724607
 C        -1.012974         0.648158         2.429075
 O        -3.582442         1.813817         2.036911
 C        -4.472222         1.565533         0.860990
 C        -3.588633         0.512107        -0.107468
 C        -2.330664         0.072412         0.722987
 H         0.901406         0.124781         0.105294
 H        -0.579337         2.724585         0.910349
 H        -1.859830         2.228025        -0.254554
 H        -0.291520         1.310320         2.957674
 H        -1.382729        -0.209836         2.960623
 H        -5.480653         1.220671         1.033966
 H        -4.539632         2.452206         0.378717
 H        -4.249141        -0.438510         0.030096
 H        -3.391363         0.712334        -1.170742
 H        -2.522847        -0.940653         1.177128
