19
Iteration:  2007charge 0 multiplicity 1
 O         0.051853        -0.253072         0.101015
 C        -0.978781         0.439021         0.763458
 C        -1.316881         1.915502         0.732102
 C        -2.309196         1.206560         1.674190
 C        -1.095902         0.528901         2.377002
 O        -3.497085         1.785024         2.012919
 C        -4.355758         1.556372         0.904293
 C        -3.558439         0.650912        -0.157416
 C        -2.456617         0.007516         0.708795
 H         0.910829         0.123710         0.161608
 H        -0.545746         2.597079         1.228473
 H        -1.539501         2.362260        -0.278216
 H        -0.315692         1.190226         2.823056
 H        -1.296820        -0.382596         2.843343
 H        -5.147721         0.949016         1.281931
 H        -4.783098         2.382413         0.330896
 H        -4.168979         0.032822        -0.923767
 H        -3.062364         1.287196        -0.905152
 H        -2.738316        -0.919358         1.222323
