19
Iteration:  4678charge 0 multiplicity 1
 O         0.127632        -0.234902         0.158678
 C        -0.951112         0.376304         0.792876
 C        -1.271207         1.854380         0.623146
 C        -2.304308         1.288895         1.566811
 C        -1.038245         0.583103         2.290053
 O        -3.455601         1.889919         2.009020
 C        -4.346543         1.449203         0.916746
 C        -3.661779         0.503001        -0.090654
 C        -2.580385         0.032452         0.814505
 H         0.668382         0.619688        -0.046284
 H        -0.568021         2.618012         1.022332
 H        -1.638470         2.277684        -0.287060
 H        -0.435116         1.282366         2.813471
 H        -1.241166        -0.342282         2.845166
 H        -5.376762         1.108520         1.214483
 H        -4.629402         2.484669         0.370479
 H        -4.429059        -0.091715        -0.475289
 H        -2.997644         0.996634        -1.054237
 H        -2.924333        -0.693136         1.587844
