19
Iteration:   811
 O         0.202701        -0.208247         0.115944
 C        -0.915172         0.433080         0.667551
 C        -1.441909         1.899056         0.689663
 C        -2.311486         1.100711         1.722329
 C        -1.092602         0.559751         2.390280
 O        -3.543896         1.700891         2.049159
 C        -4.271968         1.730131         0.816775
 C        -3.597871         0.574104        -0.107390
 C        -2.537147        -0.045204         0.729882
 H         0.880155         0.508915         0.060918
 H        -0.733208         2.610471         1.180937
 H        -1.852234         2.494653        -0.228599
 H        -0.400626         1.242918         2.928313
 H        -1.422083        -0.280820         2.959611
 H        -5.360845         1.648165         0.948967
 H        -4.061948         2.789652         0.543498
 H        -4.377494        -0.186844        -0.548797
 H        -3.092538         1.089837        -0.991497
 H        -2.767141        -1.036838         1.231100
