19
Iteration:  1411
 O         0.035645        -0.231070         0.016573
 C        -0.947266         0.372415         0.698604
 C        -1.208146         1.953831         0.761960
 C        -2.237934         1.297602         1.737273
 C        -1.130850         0.474545         2.505749
 O        -3.483924         1.894744         1.952438
 C        -4.438468         1.393778         0.849256
 C        -3.579504         0.586877        -0.167301
 C        -2.479010         0.042856         0.737435
 H         0.901534         0.262016         0.259067
 H        -0.361574         2.536807         1.210611
 H        -1.720538         2.493813        -0.101458
 H        -0.370668         1.116841         3.014042
 H        -1.420217        -0.298874         3.102692
 H        -5.281660         0.800546         1.275623
 H        -5.018510         2.244386         0.454370
 H        -4.234531         0.124884        -1.030347
 H        -3.040515         1.369285        -0.778333
 H        -2.692887        -0.938575         1.242151
