19
Iteration:  2681
 O         0.055975        -0.269427         0.208830
 C        -0.931295         0.436056         0.789676
 C        -1.279715         1.917891         0.700173
 C        -2.289511         1.297011         1.678424
 C        -1.061066         0.416523         2.370641
 O        -3.486145         1.856797         1.953083
 C        -4.386980         1.369952         0.929660
 C        -3.589615         0.698119        -0.171773
 C        -2.453716         0.112873         0.668074
 H         0.254341         0.201813        -0.653208
 H        -0.487676         2.566294         1.202096
 H        -1.510670         2.235778        -0.360965
 H        -0.359422         1.072988         2.659960
 H        -1.383393        -0.355599         3.106441
 H        -5.206610         0.729704         1.428990
 H        -4.844749         2.316423         0.587874
 H        -4.247759         0.049931        -0.805752
 H        -3.192725         1.417938        -0.858755
 H        -2.897249        -0.820571         1.163671
