19
Iteration:  3012
 O         0.152296        -0.180795         0.133031
 C        -0.880341         0.419455         0.783848
 C        -1.138242         1.898355         0.662280
 C        -2.339501         1.247071         1.628676
 C        -1.044241         0.469113         2.389424
 O        -3.537783         1.901650         1.932050
 C        -4.484291         1.406290         0.948293
 C        -3.702603         0.700962        -0.093989
 C        -2.502252         0.101746         0.689758
 H         0.377415        -1.017573         0.593943
 H        -0.349415         2.580670         1.041051
 H        -1.465272         2.254827        -0.325418
 H        -0.104052         0.820388         3.032071
 H        -1.420458        -0.482443         2.786632
 H        -5.184464         0.683927         1.370808
 H        -4.889804         2.202636         0.365809
 H        -4.155420        -0.146691        -0.524244
 H        -3.483994         1.384438        -0.902921
 H        -2.723215        -0.919617         1.052330
