19
Iteration:   658
 O         0.117377        -0.424288         0.194816
 C        -0.865405         0.462547         0.779792
 C        -1.256815         2.047455         0.753529
 C        -2.264679         1.392317         1.712558
 C        -1.023887         0.468826         2.281494
 O        -3.572020         1.758338         2.074679
 C        -4.509509         1.350123         0.921140
 C        -3.663924         0.719594        -0.273504
 C        -2.441559         0.184136         0.582494
 H         1.043964        -0.089257         0.472232
 H        -0.531062         2.667793         1.183469
 H        -1.604031         2.174039        -0.327659
 H        -0.207952         1.026761         2.847738
 H        -1.291166        -0.496733         2.791426
 H        -5.222183         0.694187         1.420340
 H        -4.997308         2.274970         0.570336
 H        -4.308246        -0.000987        -0.838036
 H        -3.223629         1.480324        -0.999088
 H        -2.742121        -0.782647         1.112947
