19
Iteration:   164
 O        -0.030701        -0.325189         0.039206
 C        -0.860915         0.510650         0.833102
 C        -1.171180         2.043175         0.912813
 C        -2.351981         1.193834         1.715754
 C        -1.102806         0.364345         2.367051
 O        -3.711923         1.558786         2.076283
 C        -4.300598         1.652901         0.706663
 C        -3.497347         0.667326        -0.202823
 C        -2.402627         0.205172         0.652101
 H         0.736165         0.293441        -0.321711
 H        -0.595155         2.673734         1.659346
 H        -1.478275         2.532137        -0.010434
 H        -0.527594         1.114895         2.967654
 H        -1.357091        -0.572228         2.851825
 H        -5.402824         1.519031         0.861577
 H        -4.071967         2.672602         0.354591
 H        -4.126010        -0.138082        -0.395162
 H        -3.121734         1.026138        -1.105272
 H        -2.599533        -0.726509         1.109067
