19
Iteration:  1935charge 0 multiplicity 1
 O         0.020060        -0.217221         0.094444
 C        -0.952510         0.461007         0.745473
 C        -1.269841         1.930974         0.772078
 C        -2.315734         1.257665         1.751004
 C        -1.086091         0.497687         2.390917
 O        -3.527582         1.731122         2.072507
 C        -4.233793         1.695385         0.816450
 C        -3.686290         0.451678        -0.215966
 C        -2.400201         0.036760         0.670893
 H         0.911150         0.166234         0.098342
 H        -0.769406         2.769112         1.143017
 H        -1.901059         2.383310        -0.017491
 H        -0.283906         1.158299         2.905674
 H        -1.106103        -0.572526         2.804547
 H        -5.326443         1.410635         0.953556
 H        -4.127519         2.721184         0.251408
 H        -4.536865        -0.156199        -0.250497
 H        -3.545032         0.647887        -1.275426
 H        -2.528180        -0.932876         1.182703
