19
Iteration:  1377charge 0 multiplicity 1
 O        -0.011451        -0.324640         0.158900
 C        -0.911835         0.454700         0.794954
 C        -1.206143         1.935833         0.694525
 C        -2.261904         1.317784         1.702664
 C        -1.107833         0.454873         2.366662
 O        -3.569007         1.860073         2.029000
 C        -4.456703         1.377325         0.932958
 C        -3.565431         0.671205        -0.188738
 C        -2.345214         0.133430         0.594552
 H         0.812032         0.209672         0.049539
 H        -0.426557         2.703105         1.091123
 H        -1.580305         2.277780        -0.276142
 H        -0.381699         1.104953         2.882086
 H        -1.395099        -0.349996         2.938085
 H        -5.069365         0.566730         1.380757
 H        -4.964101         2.207434         0.479449
 H        -4.258024        -0.167550        -0.688446
 H        -3.255657         1.464601        -0.883767
 H        -2.602087        -0.930213         0.887087
