19
Iteration:  1272charge 0 multiplicity 1
 O        -0.003792        -0.269617         0.017760
 C        -0.878730         0.475391         0.757340
 C        -1.100567         1.949569         0.764221
 C        -2.275565         1.200014         1.713373
 C        -1.097423         0.519937         2.470865
 O        -3.587748         1.786873         2.001669
 C        -4.438286         1.427084         0.804962
 C        -3.600834         0.602986        -0.174954
 C        -2.452265         0.164120         0.748954
 H         0.862719         0.135117         0.059987
 H        -0.372231         2.584937         1.201925
 H        -1.534305         2.354383        -0.184794
 H        -0.322465         1.173099         2.943190
 H        -1.371143        -0.436259         3.004948
 H        -5.330521         1.010235         1.147326
 H        -4.782411         2.428703         0.443519
 H        -4.197573        -0.182013        -0.500746
 H        -3.344598         1.138718        -1.091127
 H        -2.688199        -0.759814         1.279269
