19
Iteration:  3082
 O         0.116841        -0.226525         0.148819
 C        -0.924775         0.369968         0.778158
 C        -1.176919         1.877079         0.661344
 C        -2.239169         1.328500         1.651874
 C        -1.047024         0.497344         2.405410
 O        -3.541319         1.945321         1.927162
 C        -4.486851         1.232505         1.010337
 C        -3.595091         0.723149        -0.254989
 C        -2.506195         0.173751         0.732274
 H        -0.145383        -1.193355         0.157721
 H        -0.562307         2.609139         1.248998
 H        -1.455012         2.378483        -0.328762
 H        -0.387269         1.139762         2.865199
 H        -1.241978        -0.393090         3.022879
 H        -4.893251         0.396423         1.561800
 H        -5.184979         2.085188         0.708189
 H        -4.073213         0.018653        -0.984745
 H        -3.253391         1.587225        -0.872711
 H        -2.958627        -0.750244         1.223048
