19
Iteration:  4504
 O         0.171466        -0.244023         0.132603
 C        -0.908199         0.490916         0.707324
 C        -1.165282         1.952011         0.599445
 C        -2.276319         1.253365         1.675441
 C        -1.138673         0.623092         2.450247
 O        -3.469243         1.871254         1.969429
 C        -4.423597         1.440651         0.942778
 C        -3.719656         0.501709        -0.082062
 C        -2.470681         0.065621         0.660565
 H        -0.214288        -1.121474         0.068266
 H        -0.349063         2.441849         1.181472
 H        -1.780107         2.437882        -0.165820
 H        -0.437277         1.321242         2.879369
 H        -1.367967        -0.315663         2.996295
 H        -5.239394         0.888067         1.404230
 H        -4.739921         2.295565         0.327226
 H        -4.355932        -0.322049        -0.329677
 H        -3.544028         1.075645        -1.094947
 H        -2.632605        -0.859768         1.287143
