19
Iteration:  1194
 O         0.209952        -0.216969         0.046696
 C        -0.914753         0.393266         0.795046
 C        -1.350048         1.940218         0.672272
 C        -2.311835         1.216545         1.684433
 C        -1.168700         0.544928         2.393511
 O        -3.533570         1.691491         2.103722
 C        -4.296950         1.674847         0.816361
 C        -3.671239         0.519128        -0.169756
 C        -2.496269         0.053119         0.687159
 H         0.977737         0.104347         0.473829
 H        -0.703561         2.673961         1.183129
 H        -1.763340         2.246300        -0.246028
 H        -0.467888         1.181436         3.044190
 H        -1.265808        -0.331915         2.983960
 H        -5.317339         1.656071         1.179332
 H        -3.979666         2.652358         0.412805
 H        -4.322193        -0.310585        -0.516780
 H        -3.428691         1.132336        -0.975490
 H        -2.700044        -0.914024         1.136850
