19
Iteration:  2485
 O         0.120956        -0.250134         0.156733
 C        -0.953534         0.451828         0.740352
 C        -1.324336         1.927415         0.713051
 C        -2.273590         1.262713         1.714082
 C        -1.160199         0.560029         2.282301
 O        -3.505376         1.776855         2.040429
 C        -4.318262         1.490805         0.871852
 C        -3.552292         0.682652        -0.134962
 C        -2.454933         0.031584         0.740765
 H        -0.085755        -0.698773        -0.625693
 H        -0.608675         2.518728         1.358979
 H        -1.621784         2.330078        -0.314030
 H        -0.459416         1.049573         2.885026
 H        -1.319412        -0.476474         2.805325
 H        -5.150902         0.843910         1.111050
 H        -4.704770         2.468118         0.496612
 H        -4.301767         0.038462        -0.702827
 H        -2.961202         1.276559        -0.767271
 H        -2.849265        -0.862705         1.109732
