19
Iteration:  2279charge 0 multiplicity 1
 O         0.142285        -0.137881         0.206182
 C        -0.948019         0.412153         0.787489
 C        -1.319914         1.843516         0.684548
 C        -2.278090         1.183215         1.705758
 C        -1.119089         0.438389         2.354661
 O        -3.531861         1.741562         2.028263
 C        -4.318032         1.720367         0.852886
 C        -3.599116         0.589415        -0.183232
 C        -2.400132         0.044639         0.674617
 H        -0.101465        -0.117129        -0.760018
 H        -0.577230         2.522064         1.029848
 H        -1.914434         2.135491        -0.168881
 H        -0.234455         1.076068         2.879264
 H        -1.442985        -0.460058         2.843632
 H        -5.320279         1.318001         1.136292
 H        -4.436624         2.806184         0.456039
 H        -4.424239        -0.119299        -0.050918
 H        -3.430893         1.052002        -1.254925
 H        -2.750951        -0.858211         1.259055
