19
Iteration:  4595
 O         0.110511        -0.393133         0.240270
 C        -0.908897         0.497009         0.742908
 C        -1.212729         1.966338         0.536051
 C        -2.254102         1.358357         1.663240
 C        -1.122142         0.593278         2.368271
 O        -3.510937         1.845390         1.972779
 C        -4.499268         1.307555         1.004529
 C        -3.573239         0.623135        -0.155727
 C        -2.426361         0.222692         0.706176
 H        -0.329187        -0.866663        -0.470557
 H        -0.412344         2.595784         0.961997
 H        -1.663801         2.359869        -0.389268
 H        -0.234696         1.092410         2.864136
 H        -1.466085        -0.345871         2.840476
 H        -5.058771         0.622853         1.671358
 H        -5.090088         2.171129         0.727704
 H        -4.034418        -0.354796        -0.524821
 H        -3.389230         1.229496        -0.959583
 H        -2.611768        -0.757246         1.121991
