19
Iteration:   543charge 0 multiplicity 1
 O         0.163215        -0.227428         0.099284
 C        -0.836018         0.405762         0.806609
 C        -1.349571         1.959128         0.635595
 C        -2.311899         1.121596         1.675535
 C        -1.161813         0.574015         2.437679
 O        -3.582760         1.588069         2.047011
 C        -4.275610         1.746512         0.810465
 C        -3.639006         0.621397        -0.105353
 C        -2.413585        -0.025349         0.696447
 H         0.642871         0.491621        -0.443064
 H        -0.786146         2.717394         1.261767
 H        -1.851890         2.305190        -0.195485
 H        -0.472779         1.244892         3.020403
 H        -1.342962        -0.289787         2.973212
 H        -5.391730         1.719660         0.924984
 H        -4.106648         2.778136         0.442542
 H        -4.584967         0.014310        -0.276788
 H        -3.448044         1.129216        -1.053467
 H        -2.754672        -0.939648         1.158265
