19
Iteration:  4596
 O         0.110762        -0.390035         0.247475
 C        -0.916117         0.499679         0.737447
 C        -1.208338         1.969583         0.539502
 C        -2.240335         1.355515         1.668813
 C        -1.123930         0.593753         2.361483
 O        -3.517534         1.843532         1.972122
 C        -4.496010         1.305351         1.000952
 C        -3.566025         0.623639        -0.149017
 C        -2.433275         0.218343         0.704206
 H        -0.327895        -0.883519        -0.500549
 H        -0.386328         2.564483         0.969012
 H        -1.659746         2.388758        -0.400039
 H        -0.210121         1.092118         2.843283
 H        -1.470009        -0.342693         2.856971
 H        -5.056393         0.639121         1.698267
 H        -5.096245         2.197719         0.700414
 H        -4.028030        -0.353072        -0.539045
 H        -3.488199         1.202882        -0.980592
 H        -2.618118        -0.748702         1.116337
