19
Iteration:  4701
 O         0.036971        -0.374974         0.071847
 C        -0.895435         0.447063         0.738834
 C        -1.263087         1.950463         0.622475
 C        -2.269490         1.275817         1.740004
 C        -1.024274         0.645106         2.403176
 O        -3.582064         1.820587         2.014132
 C        -4.468186         1.549769         0.848880
 C        -3.615683         0.519718        -0.080252
 C        -2.350070         0.048137         0.752365
 H         0.891872         0.061537         0.010679
 H        -0.570826         2.745081         0.919187
 H        -1.763175         2.261591        -0.250212
 H        -0.277167         1.230700         2.877197
 H        -1.393329        -0.181044         2.986084
 H        -5.507999         1.298534         1.176727
 H        -4.629264         2.612846         0.399496
 H        -4.145277        -0.414575        -0.100859
 H        -3.372264         0.789304        -1.251676
 H        -2.543477        -0.975147         1.186855
