19
Iteration:  3270
 O         0.126975        -0.215497         0.062271
 C        -0.952610         0.358864         0.743414
 C        -1.202908         1.909491         0.758351
 C        -2.309294         1.261868         1.659284
 C        -1.152040         0.566239         2.366946
 O        -3.499946         1.869228         2.002176
 C        -4.465214         1.368246         0.875079
 C        -3.577206         0.716982        -0.159473
 C        -2.447168         0.065119         0.779066
 H         0.193176        -1.142359         0.089895
 H        -0.303600         2.594982         1.163062
 H        -1.642972         2.310153        -0.186279
 H        -0.546880         1.307306         2.920314
 H        -1.239055        -0.307545         2.973194
 H        -5.092793         0.618356         1.312639
 H        -4.725291         2.362917         0.505068
 H        -4.184502         0.091720        -0.830728
 H        -3.092812         1.400432        -1.003504
 H        -2.784225        -0.855393         1.385136
