19
Iteration:   615
 O         0.021010        -0.148982        -0.020626
 C        -0.939213         0.350435         0.851222
 C        -1.219966         1.902476         0.782325
 C        -2.254474         1.204905         1.693479
 C        -1.130439         0.533650         2.524458
 O        -3.546082         1.830395         2.051525
 C        -4.348905         1.510259         0.852650
 C        -3.580578         0.599526        -0.257253
 C        -2.447859         0.016902         0.644471
 H         0.918137         0.340893         0.065909
 H        -0.385746         2.485019         1.177381
 H        -1.849686         2.163938        -0.169954
 H        -0.438209         1.330417         2.988742
 H        -1.411332        -0.396722         3.116733
 H        -5.223813         0.971110         1.246666
 H        -4.620721         2.495873         0.392273
 H        -4.190489        -0.221853        -0.733558
 H        -3.248751         1.319342        -1.075164
 H        -2.758553        -1.013785         1.033853
