19
Iteration:   145
 O         0.057106        -0.293420         0.070792
 C        -0.944886         0.425396         0.736800
 C        -1.275496         1.978068         0.933322
 C        -2.323252         1.252338         1.801890
 C        -1.147807         0.448411         2.467718
 O        -3.575565         1.645573         2.034568
 C        -4.331483         1.607581         0.762435
 C        -3.539187         0.719369        -0.305624
 C        -2.416391         0.092479         0.628702
 H         0.821666         0.259399        -0.336153
 H        -0.412837         2.481108         1.458725
 H        -1.658390         2.514902         0.172139
 H        -0.265841         0.843109         3.088741
 H        -1.301250        -0.517244         2.822980
 H        -5.251164         1.072366         0.973644
 H        -4.464233         2.667566         0.369044
 H        -4.169916        -0.040321        -0.774801
 H        -3.142748         1.456100        -1.070058
 H        -2.789400        -0.868129         0.944407
