19
Iteration:  2941charge 0 multiplicity 1
 O         0.177364        -0.224066         0.031198
 C        -0.830616         0.437038         0.794488
 C        -1.264544         1.949965         0.692572
 C        -2.315381         1.298541         1.754826
 C        -1.090733         0.543609         2.338910
 O        -3.587584         1.733233         2.052611
 C        -4.398755         1.596562         0.774766
 C        -3.614543         0.546994        -0.063690
 C        -2.479077         0.084825         0.744717
 H        -0.054275        -1.163306        -0.176358
 H        -0.595483         2.620316         1.241064
 H        -1.481827         2.413240        -0.292179
 H        -0.381231         1.085930         2.911365
 H        -1.478003        -0.362769         2.915044
 H        -5.453554         1.213630         1.073171
 H        -4.270412         2.555799         0.247252
 H        -4.328861        -0.332038        -0.246365
 H        -3.417213         0.993177        -1.054546
 H        -2.710873        -0.859706         1.237115
