19
Iteration:  1938charge 0 multiplicity 1
 O         0.005662        -0.230358         0.099735
 C        -0.943436         0.468367         0.735507
 C        -1.290486         1.936783         0.789605
 C        -2.303227         1.249694         1.743821
 C        -1.085821         0.510894         2.392555
 O        -3.520334         1.720401         2.085556
 C        -4.225833         1.683345         0.789353
 C        -3.683506         0.460159        -0.203746
 C        -2.417309         0.067228         0.671463
 H         0.837481         0.204274         0.154983
 H        -0.704303         2.758732         1.174680
 H        -1.731561         2.409590        -0.067460
 H        -0.313479         1.093524         2.750036
 H        -1.076334        -0.596254         2.801042
 H        -5.310488         1.429788         0.920499
 H        -4.220609         2.739086         0.263667
 H        -4.492271        -0.291257        -0.253474
 H        -3.558596         0.633333        -1.300701
 H        -2.468256        -0.947023         1.207898
