19
Iteration:  3500
 O         0.155972        -0.221438         0.121547
 C        -0.870982         0.412426         0.775420
 C        -1.295244         1.851073         0.638277
 C        -2.315772         1.255249         1.663283
 C        -1.138263         0.524333         2.373338
 O        -3.568440         1.812169         2.054919
 C        -4.345402         1.618555         0.820734
 C        -3.673428         0.498165        -0.109501
 C        -2.458503         0.039837         0.779030
 H         0.718617         0.353141        -0.343330
 H        -0.564905         2.627690         1.009598
 H        -1.491119         2.235898        -0.436891
 H        -0.427142         1.051501         3.094629
 H        -1.382381        -0.496101         2.749084
 H        -5.359886         1.431639         1.222178
 H        -4.176781         2.681725         0.435928
 H        -4.261745        -0.267748        -0.640065
 H        -3.273534         1.126153        -0.967415
 H        -2.678575        -0.801219         1.405119
