19
Iteration:  1032charge 0 multiplicity 1
 O         0.081255        -0.298493        -0.010809
 C        -0.980465         0.395906         0.765079
 C        -1.198066         1.932542         0.729654
 C        -2.352366         1.306895         1.715723
 C        -1.228939         0.541387         2.439354
 O        -3.557039         1.902616         2.017556
 C        -4.333591         1.350681         0.941394
 C        -3.512734         0.645033        -0.142970
 C        -2.412544         0.143348         0.634054
 H         0.970681        -0.157622         0.430121
 H        -0.291109         2.554116         1.104439
 H        -1.592380         2.220471        -0.249080
 H        -0.470709         1.005045         3.080676
 H        -1.536648        -0.368412         2.864973
 H        -5.037313         0.630621         1.374872
 H        -4.871189         2.199771         0.475245
 H        -4.017314        -0.242080        -0.657390
 H        -3.369596         1.412225        -0.932014
 H        -2.616847        -0.908135         1.042420
