19
Iteration:  1722
 O         0.044185        -0.299954         0.127587
 C        -0.961986         0.429516         0.810485
 C        -1.216809         1.961406         0.675753
 C        -2.289424         1.295922         1.728204
 C        -1.160266         0.501842         2.393407
 O        -3.479819         1.879759         1.994526
 C        -4.433142         1.301896         0.938209
 C        -3.561331         0.700443        -0.235417
 C        -2.444750         0.083285         0.650440
 H         0.916609         0.068724        -0.149134
 H        -0.326904         2.548621         1.086564
 H        -1.601340         2.328974        -0.240367
 H        -0.504103         1.227504         2.784179
 H        -1.427705        -0.476658         2.908049
 H        -4.813314         0.510505         1.617809
 H        -5.090430         2.139566         0.809628
 H        -4.216021         0.162676        -0.983360
 H        -3.137511         1.610851        -0.735005
 H        -2.685109        -0.894464         1.048965
