19
Iteration:  4828charge 0 multiplicity 1
 O         0.200709        -0.342183         0.197027
 C        -0.869543         0.465484         0.751726
 C        -1.229698         1.967106         0.653141
 C        -2.308572         1.312916         1.648999
 C        -0.986176         0.608072         2.316798
 O        -3.577240         1.776760         1.981305
 C        -4.429698         1.591841         0.887680
 C        -3.728417         0.441731        -0.103998
 C        -2.469652         0.109699         0.816616
 H        -0.088031        -0.230032        -0.795334
 H        -0.497420         2.823043         0.778028
 H        -1.742704         2.249435        -0.283611
 H        -0.142868         1.137726         2.879942
 H        -1.160823        -0.405889         2.887077
 H        -5.387783         1.344598         1.307732
 H        -4.531718         2.430939         0.301081
 H        -4.497309        -0.445081        -0.033491
 H        -3.725523         0.877000        -1.101857
 H        -2.597373        -0.901970         1.197646
