19
Iteration:  2261charge 0 multiplicity 1
 O         0.210862        -0.213022         0.159380
 C        -0.927761         0.442010         0.775149
 C        -1.337845         1.960360         0.793534
 C        -2.343768         1.161579         1.721555
 C        -1.055934         0.435819         2.338228
 O        -3.532139         1.789858         2.060352
 C        -4.273506         1.693638         0.759180
 C        -3.751057         0.551336        -0.102839
 C        -2.508590         0.024858         0.679777
 H         0.335356        -0.015876        -0.810571
 H        -0.655182         2.680584         1.367016
 H        -1.614588         2.373731        -0.221154
 H        -0.285614         1.174225         2.760911
 H        -1.153850        -0.604899         2.721757
 H        -5.360669         1.632008         0.957735
 H        -4.022845         2.553743         0.136757
 H        -4.357587        -0.298458        -0.292427
 H        -3.388586         0.855808        -1.079275
 H        -2.639423        -1.021301         1.015285
