19
Iteration:   552charge 0 multiplicity 1
 O         0.110659        -0.226915         0.097578
 C        -0.861604         0.442710         0.813004
 C        -1.340262         1.925027         0.769819
 C        -2.309681         1.189058         1.675728
 C        -1.130183         0.552690         2.366037
 O        -3.566974         1.596516         2.101587
 C        -4.200872         1.693179         0.735265
 C        -3.690488         0.614349        -0.135256
 C        -2.470245         0.041648         0.686686
 H         0.620793         0.481063        -0.423355
 H        -0.631736         2.726919         1.175054
 H        -1.743296         2.326549        -0.203988
 H        -0.514325         1.351418         2.906798
 H        -1.394005        -0.341324         2.909586
 H        -5.246639         1.408332         0.948103
 H        -4.055137         2.743895         0.328700
 H        -4.415194        -0.247267        -0.254236
 H        -3.313020         0.808160        -1.098982
 H        -2.632090        -0.891523         1.229941
