19
Iteration:   726
 O         0.109383        -0.230718         0.022342
 C        -0.952772         0.409763         0.808676
 C        -1.178431         1.831127         0.741029
 C        -2.308565         1.264315         1.785634
 C        -1.142844         0.426175         2.427196
 O        -3.555332         1.960477         1.907858
 C        -4.415118         1.304697         0.965254
 C        -3.582318         0.702726        -0.254520
 C        -2.475840         0.194356         0.704341
 H         0.838452         0.234217         0.383442
 H        -0.378315         2.482496         1.116134
 H        -1.614080         2.022229        -0.204427
 H        -0.311800         1.120692         2.916186
 H        -1.138146        -0.576350         2.823973
 H        -4.956813         0.399434         1.263317
 H        -5.202206         2.078383         0.766093
 H        -4.066649        -0.063511        -0.977574
 H        -3.190337         1.514882        -0.810881
 H        -2.843045        -0.684447         1.337194
