19
Iteration:  1050charge 0 multiplicity 1
 O         0.045398        -0.288269         0.119377
 C        -0.874976         0.472547         0.745737
 C        -1.222319         1.987281         0.736985
 C        -2.243238         1.286674         1.656922
 C        -1.138520         0.443660         2.388413
 O        -3.461889         1.807192         2.040291
 C        -4.448590         1.479688         0.868706
 C        -3.647242         0.593094        -0.276945
 C        -2.452475         0.118307         0.741305
 H         0.908863         0.133153         0.392278
 H        -0.500791         2.627004         1.306524
 H        -1.598864         2.432623        -0.171436
 H        -0.356135         1.143792         2.998305
 H        -1.476294        -0.509817         2.866065
 H        -5.172002         0.690586         1.252709
 H        -5.002089         2.371155         0.504250
 H        -4.352620        -0.261369        -0.506960
 H        -3.319070         1.045776        -1.180988
 H        -2.801491        -0.754505         1.281573
