19
Iteration:   113charge 0 multiplicity 1
 O         0.215794        -0.134657         0.139590
 C        -0.926605         0.376862         0.788182
 C        -1.216375         1.779249         0.761011
 C        -2.379713         1.204255         1.714102
 C        -1.268498         0.314523         2.401739
 O        -3.497581         1.828153         1.963913
 C        -4.459495         1.487142         0.942384
 C        -3.502058         0.815986        -0.249555
 C        -2.504732         0.129777         0.619452
 H         0.984494         0.452171         0.298737
 H        -0.362745         2.382997         1.219998
 H        -1.482308         2.204840        -0.170289
 H        -0.459480         0.819278         3.008878
 H        -1.531947        -0.664265         2.560362
 H        -5.160771         0.817188         1.411067
 H        -5.021092         2.453576         0.770100
 H        -4.049781         0.123294        -0.927359
 H        -3.091313         1.655171        -0.919507
 H        -2.891668        -0.838386         0.997301
