19
Iteration:  1001
 O         0.007191        -0.326721         0.087576
 C        -0.925171         0.455441         0.820087
 C        -1.104415         1.945318         0.802714
 C        -2.318468         1.258686         1.697845
 C        -1.039914         0.540110         2.384116
 O        -3.514186         1.867452         1.876935
 C        -4.434993         1.269695         0.943821
 C        -3.621547         0.726803        -0.242268
 C        -2.541320         0.171292         0.728874
 H         0.915683        -0.004951         0.248587
 H        -0.268864         2.534129         1.226283
 H        -1.508029         2.451591        -0.097726
 H        -0.340137         1.135014         2.845245
 H        -1.208748        -0.486211         2.779720
 H        -4.861218         0.359153         1.314570
 H        -5.251736         1.967206         0.758213
 H        -3.999875        -0.086302        -0.880244
 H        -3.234790         1.655683        -0.757430
 H        -2.971057        -0.787374         1.137075
