19
Iteration:    60
 O        -0.040706        -0.377474         0.199825
 C        -0.895781         0.523067         0.679450
 C        -1.008984         2.089565         0.905002
 C        -2.262798         1.250093         1.683283
 C        -1.308146         0.335570         2.385474
 O        -3.521713         1.849168         1.934398
 C        -4.428386         1.205472         0.963754
 C        -3.595634         0.787110        -0.248391
 C        -2.351029         0.283101         0.487289
 H         0.848089        -0.223385         0.538623
 H        -0.262781         2.733162         1.431714
 H        -1.408507         2.741157         0.068091
 H        -0.633657         0.692560         3.258137
 H        -1.687873        -0.673459         2.587038
 H        -4.898765         0.435326         1.550417
 H        -5.205622         1.968970         0.775666
 H        -4.129519        -0.017874        -0.826330
 H        -3.522723         1.711587        -0.944939
 H        -2.557170        -0.804902         0.770485
