19
Iteration:  4192
 O         0.107533        -0.289738         0.168209
 C        -0.935074         0.420104         0.780703
 C        -1.138327         1.927538         0.646157
 C        -2.347308         1.381056         1.593858
 C        -1.077370         0.680927         2.297775
 O        -3.534682         1.916757         1.996157
 C        -4.434289         1.205610         0.988130
 C        -3.604343         0.638268        -0.193954
 C        -2.441112         0.112654         0.755927
 H        -0.306609        -1.212698        -0.003879
 H        -0.396476         2.433637         1.167329
 H        -1.377861         2.213890        -0.330127
 H        -0.310482         1.308269         2.718338
 H        -1.207346        -0.124101         2.934496
 H        -5.063350         0.417890         1.546675
 H        -5.159462         1.981935         0.673234
 H        -4.240297        -0.243253        -0.654065
 H        -3.238611         1.496441        -0.765890
 H        -2.791088        -0.889591         1.292560
