19
Iteration:  4867
 O         0.065386        -0.211986         0.103124
 C        -0.977448         0.419373         0.776861
 C        -1.315486         1.897997         0.555853
 C        -2.224843         1.325196         1.665162
 C        -1.045447         0.659778         2.367313
 O        -3.539762         1.830382         2.090838
 C        -4.309454         1.499730         0.918340
 C        -3.522432         0.516376        -0.160262
 C        -2.560520        -0.000396         0.791920
 H         0.010836        -1.112858        -0.129961
 H        -0.589710         2.594027         0.869892
 H        -1.768344         2.145372        -0.430603
 H        -0.450074         1.435063         2.769573
 H        -1.230784        -0.208030         2.912127
 H        -5.236070         0.935946         1.293564
 H        -4.601690         2.570740         0.454756
 H        -4.043820        -0.320180        -0.608648
 H        -2.961069         1.042476        -0.924436
 H        -2.735664        -0.990063         1.347458
