19
Iteration:   938charge 0 multiplicity 1
 O         0.190454        -0.238982         0.125439
 C        -0.959190         0.356887         0.787910
 C        -1.187557         1.845214         0.750398
 C        -2.282258         1.246820         1.679504
 C        -1.120077         0.575720         2.327838
 O        -3.558545         1.795035         2.056402
 C        -4.488436         1.470629         0.935963
 C        -3.636926         0.727310        -0.206260
 C        -2.463498         0.075504         0.577406
 H         0.825429         0.312190         0.533372
 H        -0.324934         2.286860         1.058885
 H        -1.566719         2.201266        -0.238507
 H        -0.205704         1.045891         2.691001
 H        -1.406956        -0.277021         3.111270
 H        -5.174109         0.843020         1.536939
 H        -5.009666         2.362580         0.568678
 H        -4.225443         0.026779        -0.661426
 H        -3.361712         1.397261        -1.055013
 H        -2.671208        -0.878777         0.944807
