19
Iteration:  4076charge 0 multiplicity 1
 O         0.165495        -0.204893         0.186142
 C        -0.930013         0.418616         0.723670
 C        -1.470013         1.911869         0.542378
 C        -2.310045         1.248902         1.603215
 C        -1.083747         0.740502         2.299020
 O        -3.509997         1.626623         2.111493
 C        -4.226879         1.666625         0.826395
 C        -3.694664         0.501265        -0.064178
 C        -2.453178        -0.032160         0.756397
 H         0.580675        -0.785883         0.854554
 H        -0.617256         2.558768         0.781917
 H        -2.043582         2.014689        -0.351904
 H        -0.270993         1.450090         2.689562
 H        -1.236653        -0.040964         3.131497
 H        -5.259109         1.629638         0.934054
 H        -3.969997         2.659299         0.420279
 H        -4.370029        -0.145019        -0.299840
 H        -3.353286         1.095426        -0.865520
 H        -2.590652        -0.861057         1.333776
