19
Iteration:   651
 O         0.108254        -0.374413         0.179613
 C        -0.853539         0.410957         0.769967
 C        -1.257095         2.017378         0.730770
 C        -2.293208         1.350151         1.633603
 C        -1.075751         0.471972         2.265160
 O        -3.576301         1.745174         2.081185
 C        -4.470892         1.393001         0.949818
 C        -3.550367         0.705505        -0.236378
 C        -2.491153         0.173309         0.656626
 H         1.027350        -0.026142         0.432778
 H        -0.393083         2.772416         0.940786
 H        -1.668282         2.422375        -0.194892
 H        -0.387657         1.083178         2.974748
 H        -1.275069        -0.447607         2.774279
 H        -5.285840         0.716814         1.317205
 H        -5.000573         2.294110         0.526039
 H        -4.133124        -0.017374        -0.854801
 H        -3.311445         1.532002        -0.812605
 H        -2.845667        -0.739963         1.124486
