19
Iteration:  2047charge 0 multiplicity 1
 O         0.077759        -0.302956         0.173604
 C        -0.894152         0.431699         0.795742
 C        -1.111292         1.953527         0.758930
 C        -2.251486         1.316446         1.654803
 C        -1.126984         0.442176         2.356228
 O        -3.524180         1.813915         1.953267
 C        -4.468814         1.374826         0.954057
 C        -3.657466         0.630322        -0.200565
 C        -2.475516         0.219828         0.588602
 H         0.617927         0.425600        -0.304072
 H        -0.359487         2.514906         1.248059
 H        -1.303236         2.277076        -0.222578
 H        -0.401043         0.877814         3.001921
 H        -1.609615        -0.415211         3.038442
 H        -5.045863         0.669984         1.603476
 H        -4.947067         2.395974         0.758085
 H        -4.331552        -0.124016        -0.441476
 H        -3.485953         1.337088        -1.017001
 H        -2.825807        -0.766293         1.041875
