19
Iteration:  1844charge 0 multiplicity 1
 O         0.047825        -0.373233         0.046707
 C        -0.951530         0.457001         0.723296
 C        -1.253918         2.007124         0.722348
 C        -2.259482         1.325065         1.699923
 C        -1.126843         0.509516         2.405341
 O        -3.578776         1.744731         2.083565
 C        -4.384244         1.508847         0.840546
 C        -3.559635         0.551799        -0.160066
 C        -2.413334         0.119269         0.693255
 H         0.891925         0.197849         0.165133
 H        -0.604288         2.719244         1.305418
 H        -1.478512         2.615379        -0.173793
 H        -0.266501         1.114342         2.928750
 H        -1.354135        -0.433996         2.842727
 H        -5.332280         1.241929         1.289417
 H        -4.555685         2.539860         0.479300
 H        -4.193671        -0.252493        -0.618531
 H        -3.272203         1.122420        -1.023070
 H        -2.622187        -0.766281         1.256635
