19
Iteration:  2429charge 0 multiplicity 1
 O         0.156793        -0.358239         0.264979
 C        -0.937123         0.419350         0.697029
 C        -1.205814         2.020045         0.728559
 C        -2.254015         1.338867         1.646786
 C        -1.176302         0.452878         2.261884
 O        -3.482699         1.855283         2.003341
 C        -4.482768         1.386124         1.029344
 C        -3.614892         0.651520        -0.151620
 C        -2.456511         0.110700         0.595029
 H         0.483343         0.127368        -0.552331
 H        -0.338919         2.524654         1.266787
 H        -1.459663         2.650296        -0.228118
 H        -0.473742         1.043096         2.771740
 H        -1.670467        -0.556364         2.758539
 H        -5.240378         0.745757         1.527098
 H        -4.935392         2.307188         0.686995
 H        -4.217910        -0.128055        -0.787111
 H        -3.251956         1.333079        -0.900329
 H        -2.810913        -0.760258         1.119186
