19
Iteration:  2283charge 0 multiplicity 1
 O         0.150266        -0.143030         0.183409
 C        -0.958931         0.415337         0.816192
 C        -1.316992         1.856475         0.666104
 C        -2.283135         1.190773         1.708156
 C        -1.148070         0.459305         2.371455
 O        -3.505861         1.722798         2.046528
 C        -4.336319         1.705246         0.867290
 C        -3.599604         0.632545        -0.192228
 C        -2.415187         0.034216         0.688391
 H        -0.002968        -0.221607        -0.752751
 H        -0.499051         2.609751         0.965272
 H        -1.832690         2.135560        -0.302199
 H        -0.209977         1.057024         2.800068
 H        -1.545673        -0.521283         2.790953
 H        -5.351866         1.298267         1.095882
 H        -4.411552         2.710998         0.421149
 H        -4.349863        -0.142522        -0.229612
 H        -3.320424         0.896644        -1.208837
 H        -2.745126        -0.829327         1.281502
