19
Iteration:  4994
 O         0.068917        -0.267236         0.213467
 C        -0.978560         0.435677         0.761891
 C        -1.264086         1.903826         0.587202
 C        -2.261502         1.314713         1.664384
 C        -1.063738         0.586976         2.292552
 O        -3.443946         1.830799         2.009125
 C        -4.452165         1.444985         0.958808
 C        -3.544322         0.600235        -0.130966
 C        -2.441163         0.081529         0.734912
 H        -0.294713        -0.741549        -0.566685
 H        -0.599181         2.687109         1.052459
 H        -1.654960         2.277642        -0.409021
 H        -0.364329         1.191296         2.994759
 H        -1.504943        -0.321466         2.780029
 H        -5.096174         0.767199         1.425467
 H        -5.014151         2.261501         0.694562
 H        -4.208990        -0.151255        -0.481129
 H        -3.224898         1.296304        -1.016152
 H        -2.626347        -0.898396         1.177906
