19
Iteration:  1106
 O         0.034431        -0.193202         0.094320
 C        -0.914607         0.412105         0.891548
 C        -1.359881         1.883415         0.629766
 C        -2.232175         1.247504         1.653994
 C        -1.185260         0.518490         2.404054
 O        -3.496046         1.689967         2.075701
 C        -4.234131         1.601699         0.834131
 C        -3.557540         0.594053        -0.203540
 C        -2.490331         0.055836         0.728022
 H         0.698602         0.432550        -0.098488
 H        -0.805315         2.730663         1.132375
 H        -1.818100         2.068928        -0.291452
 H        -0.384032         1.131145         3.064071
 H        -1.384534        -0.314373         3.026658
 H        -5.280533         1.228517         1.006142
 H        -4.217837         2.547969         0.247230
 H        -4.354752        -0.073744        -0.684378
 H        -3.237339         1.161530        -1.029588
 H        -2.807098        -0.831010         1.289613
