19
Iteration:   697
 O         0.091954        -0.286066         0.089875
 C        -0.927426         0.433934         0.810356
 C        -1.144809         1.985031         0.747569
 C        -2.275411         1.347407         1.570705
 C        -1.278749         0.488417         2.351806
 O        -3.468121         1.880357         1.978062
 C        -4.443441         1.271224         1.033487
 C        -3.633932         0.656941        -0.192403
 C        -2.407756         0.102547         0.609587
 H         0.914983        -0.217764         0.578240
 H        -0.513381         2.699450         1.393778
 H        -1.264168         2.383865        -0.228182
 H        -0.489279         0.948855         2.949836
 H        -1.711452        -0.455474         2.754332
 H        -5.096891         0.506419         1.515816
 H        -5.102654         2.090890         0.744027
 H        -4.154619         0.079260        -0.909847
 H        -3.238689         1.575642        -0.623622
 H        -2.651494        -0.748124         1.190051
