19
Iteration:  3986
 O         0.053878        -0.168678        -0.006129
 C        -0.888474         0.381038         0.901941
 C        -1.262878         1.922844         0.669809
 C        -2.209601         1.334127         1.696408
 C        -0.994726         0.625017         2.416966
 O        -3.598791         1.858390         1.880967
 C        -4.457841         1.423513         0.853691
 C        -3.623547         0.504382        -0.122305
 C        -2.426766         0.081633         0.854048
 H        -0.085453        -1.089776        -0.065226
 H        -0.487195         2.487891         1.217681
 H        -1.604364         2.090346        -0.377188
 H        -0.067636         1.155428         2.888357
 H        -1.339721        -0.224796         3.068944
 H        -5.265947         0.825512         1.319388
 H        -4.670041         2.327771         0.318717
 H        -4.035169        -0.387122        -0.448074
 H        -3.290098         1.118752        -0.919058
 H        -2.734981        -0.801367         1.381093
