19
Iteration:   440charge 0 multiplicity 1
 O         0.055714        -0.186435         0.144988
 C        -0.950938         0.470093         0.774846
 C        -1.117016         1.956821         0.796910
 C        -2.246012         1.246239         1.666640
 C        -1.182441         0.500930         2.357058
 O        -3.564876         1.784810         2.008377
 C        -4.447416         1.357811         0.860427
 C        -3.544700         0.727589        -0.195964
 C        -2.417849         0.055994         0.720110
 H        -0.395040        -0.932017        -0.346406
 H        -0.274735         2.580601         1.122274
 H        -1.662866         2.549267        -0.128539
 H        -0.396445         1.116975         2.799577
 H        -1.226280        -0.593116         2.820948
 H        -5.283486         0.814301         1.324573
 H        -4.735946         2.367386         0.349641
 H        -3.911999        -0.031176        -0.876790
 H        -3.010661         1.442835        -0.852067
 H        -2.743727        -0.874070         1.212251
