19
Iteration:  2967
 O         0.009224        -0.197281         0.086812
 C        -0.978314         0.458920         0.800019
 C        -1.232442         1.946534         0.629291
 C        -2.269383         1.327123         1.781135
 C        -1.111164         0.572162         2.398183
 O        -3.526219         1.704578         2.023051
 C        -4.314501         1.514188         0.891304
 C        -3.542236         0.580557        -0.215700
 C        -2.470254         0.036506         0.691374
 H         0.067672        -1.176400         0.283263
 H        -0.478584         2.660866         1.042321
 H        -1.481456         2.388833        -0.315007
 H        -0.316327         1.296665         2.927871
 H        -1.309462        -0.311429         3.047335
 H        -5.133333         0.897786         1.176450
 H        -4.449827         2.499517         0.498061
 H        -4.256443        -0.118009        -0.565781
 H        -3.274419         1.212284        -1.110245
 H        -2.742602        -0.899431         1.184425
