19
Iteration:  2481
 O         0.136453        -0.261868         0.160629
 C        -0.966821         0.426228         0.721346
 C        -1.293094         1.904476         0.707979
 C        -2.294582         1.290982         1.687102
 C        -1.138633         0.556183         2.325216
 O        -3.512550         1.760568         2.052822
 C        -4.352867         1.498244         0.877397
 C        -3.536647         0.690705        -0.141391
 C        -2.447939         0.053005         0.712134
 H        -0.093617        -0.689580        -0.737456
 H        -0.776313         2.615626         1.365097
 H        -1.667018         2.266302        -0.259903
 H        -0.402697         1.130837         2.930614
 H        -1.377100        -0.334412         2.762603
 H        -5.192820         0.810151         1.282468
 H        -4.714544         2.421410         0.470117
 H        -4.243572         0.113692        -0.679554
 H        -2.944496         1.354484        -0.777026
 H        -2.861090        -0.908734         1.190103
