19
Iteration:  2876
 O         0.255940        -0.108133        -0.005080
 C        -0.975242         0.366485         0.756446
 C        -1.351104         1.857090         0.669009
 C        -2.269178         1.230037         1.712538
 C        -1.101054         0.580588         2.400504
 O        -3.546765         1.659093         2.112856
 C        -4.297900         1.765756         0.732947
 C        -3.671306         0.524939        -0.132477
 C        -2.495791         0.035514         0.799068
 H         0.295206        -0.992391         0.488684
 H        -0.695691         2.588488         1.005047
 H        -1.901041         2.245931        -0.167775
 H        -0.487883         1.299561         2.950731
 H        -1.395313        -0.381472         3.057936
 H        -5.396613         1.680192         1.027286
 H        -3.968608         2.728766         0.499729
 H        -4.320999        -0.418547        -0.219149
 H        -3.374839         0.807838        -1.156748
 H        -2.820138        -0.900147         1.163774
