19
Iteration:  2402
 O         0.152107        -0.269151         0.228777
 C        -0.874509         0.400422         0.768355
 C        -1.217605         1.905252         0.678679
 C        -2.302445         1.196750         1.653201
 C        -1.139343         0.359220         2.383253
 O        -3.476171         1.990356         1.927775
 C        -4.443267         1.334211         1.016232
 C        -3.641268         0.766880        -0.178540
 C        -2.493384         0.145114         0.632067
 H         0.390672         0.264399        -0.598457
 H        -0.523926         2.625134         1.101537
 H        -1.495609         2.357307        -0.243096
 H        -0.412641         1.088342         2.868942
 H        -1.501996        -0.446990         2.829914
 H        -4.950273         0.483110         1.567183
 H        -5.227133         2.116780         0.838832
 H        -4.192869         0.001872        -0.622126
 H        -3.355375         1.323756        -1.097416
 H        -2.861999        -0.848310         1.048682
