19
Iteration:  2190charge 0 multiplicity 1
 O         0.238209        -0.217993         0.133408
 C        -0.932557         0.376287         0.716984
 C        -1.394469         1.922050         0.730663
 C        -2.357005         1.181039         1.720430
 C        -1.103750         0.503179         2.340651
 O        -3.546228         1.726638         2.061018
 C        -4.271771         1.689062         0.805440
 C        -3.578241         0.614728        -0.096818
 C        -2.532239        -0.008617         0.750473
 H         0.329059         0.161649        -0.816181
 H        -0.769655         2.613490         1.223333
 H        -1.775595         2.412907        -0.123198
 H        -0.202795         1.128676         2.649447
 H        -1.405117        -0.426810         2.923596
 H        -5.312606         1.436772         0.982264
 H        -4.128346         2.714147         0.328962
 H        -4.330540        -0.036728        -0.587740
 H        -3.268721         1.201052        -1.028297
 H        -2.827891        -0.889996         1.366953
