19
Iteration:  1616
 O         0.091226        -0.242174         0.125285
 C        -0.968895         0.455023         0.742874
 C        -1.355510         1.902108         0.656975
 C        -2.353197         1.161194         1.747654
 C        -1.074108         0.567305         2.299323
 O        -3.597102         1.695268         2.108302
 C        -4.265411         1.692085         0.813472
 C        -3.539109         0.629688        -0.123295
 C        -2.445582        -0.046263         0.681847
 H         0.853162         0.361708         0.281086
 H        -0.717298         2.686580         1.055487
 H        -1.801166         2.163406        -0.283560
 H        -0.315108         1.174275         2.933887
 H        -0.973844        -0.408179         2.762762
 H        -5.325492         1.487691         0.956719
 H        -4.330998         2.762707         0.442008
 H        -4.332381        -0.088087        -0.416143
 H        -3.103386         1.018737        -0.981220
 H        -2.509569        -0.955854         1.321651
