19
Iteration:  1891charge 0 multiplicity 1
 O         0.107779        -0.178225         0.068564
 C        -0.965286         0.359878         0.787073
 C        -1.287282         1.894438         0.675773
 C        -2.276861         1.225887         1.733477
 C        -1.059959         0.527270         2.362813
 O        -3.586861         1.718277         2.091483
 C        -4.272563         1.672202         0.835746
 C        -3.599703         0.574650        -0.183241
 C        -2.539728        -0.013263         0.747454
 H         0.776548         0.521315         0.158330
 H        -0.423114         2.443991         0.858076
 H        -1.625259         2.374834        -0.247308
 H        -0.305904         1.209555         2.885332
 H        -1.375375        -0.346624         2.942670
 H        -5.373861         1.464639         1.075590
 H        -4.299015         2.719787         0.286762
 H        -4.205616        -0.210065        -0.548857
 H        -3.340512         0.995698        -1.130122
 H        -2.814403        -0.919620         1.288372
