19
Iteration:   460charge 0 multiplicity 1
 O         0.129651        -0.224183         0.060151
 C        -0.909128         0.399713         0.838620
 C        -1.215669         2.005589         0.810991
 C        -2.262774         1.283026         1.703922
 C        -1.171109         0.475020         2.436271
 O        -3.540473         1.768054         2.001423
 C        -4.394607         1.458938         0.847125
 C        -3.604528         0.565812        -0.199361
 C        -2.433912         0.196378         0.656025
 H        -0.227294        -0.376604        -0.780243
 H        -0.555850         2.608774         1.450141
 H        -1.031705         2.460394        -0.236959
 H        -0.461104         0.977131         3.082089
 H        -1.670898        -0.498452         2.783238
 H        -5.193534         0.838970         1.263087
 H        -4.699058         2.430979         0.425514
 H        -4.248192        -0.232748        -0.400615
 H        -3.347316         1.043483        -1.179624
 H        -2.750125        -0.767965         1.122616
