19
Iteration:  3051charge 0 multiplicity 1
 O         0.232860        -0.218528         0.189059
 C        -0.870043         0.443489         0.698697
 C        -1.116804         1.928475         0.673149
 C        -2.239300         1.311411         1.551068
 C        -1.266261         0.450813         2.407262
 O        -3.467377         2.000454         1.928185
 C        -4.470356         1.313840         1.057876
 C        -3.705628         0.605844        -0.142249
 C        -2.466083         0.091101         0.618802
 H         0.004224        -1.126898         0.016971
 H        -0.584895         2.522029         1.428249
 H        -1.448974         2.431426        -0.229120
 H        -0.682351         1.013398         3.060969
 H        -1.658990        -0.482100         2.826308
 H        -5.014681         0.650253         1.688434
 H        -5.233414         2.107387         0.941168
 H        -4.376080        -0.167519        -0.594830
 H        -3.589800         1.454592        -0.913966
 H        -2.697659        -0.843420         1.150028
