19
Iteration:   831
 O         0.116741        -0.140355         0.051178
 C        -0.956553         0.455660         0.840801
 C        -1.446680         1.859827         0.733950
 C        -2.350578         1.188039         1.765241
 C        -1.147671         0.458748         2.340372
 O        -3.497086         1.786085         2.171575
 C        -4.164627         1.699531         0.700680
 C        -3.629840         0.525376        -0.197274
 C        -2.429469        -0.032909         0.706810
 H         0.842500         0.393817         0.253757
 H        -0.895238         2.721915         1.076361
 H        -1.900855         2.159421        -0.332324
 H        -0.502940         1.170579         2.817536
 H        -1.067177        -0.539142         2.850611
 H        -5.218131         1.581329         1.005244
 H        -3.997207         2.662261         0.137298
 H        -4.410622        -0.278263        -0.185954
 H        -3.447970         0.804271        -1.294799
 H        -2.478147        -1.065935         1.062189
