19
Iteration:  4031
 O         0.110867        -0.102495         0.024863
 C        -0.916628         0.412373         0.802531
 C        -1.332081         1.957522         0.630626
 C        -2.220797         1.329854         1.663308
 C        -1.098106         0.568775         2.440362
 O        -3.533931         1.829742         1.980846
 C        -4.319427         1.535330         0.760536
 C        -3.682503         0.383346        -0.015980
 C        -2.409854        -0.002539         0.779052
 H         0.018760        -1.043830         0.144126
 H        -0.689782         2.740000         1.101812
 H        -1.860341         2.033700        -0.312944
 H        -0.328558         1.135670         3.109120
 H        -1.294207        -0.395829         3.009738
 H        -5.296381         1.496247         1.215907
 H        -4.238458         2.431005         0.148336
 H        -4.359805        -0.343470         0.029994
 H        -3.461781         0.735400        -0.993481
 H        -2.627149        -0.834719         1.358537
