19
Iteration:  2477
 O         0.148163        -0.273817         0.158575
 C        -0.964455         0.390654         0.717153
 C        -1.263968         1.900254         0.698991
 C        -2.315956         1.294397         1.652021
 C        -1.107961         0.557725         2.367078
 O        -3.525711         1.752396         2.067732
 C        -4.396077         1.489649         0.896191
 C        -3.515655         0.702956        -0.146778
 C        -2.463017         0.067622         0.689058
 H        -0.111832        -0.584902        -0.694069
 H        -0.800068         2.729456         1.238691
 H        -1.686946         2.299102        -0.185423
 H        -0.319418         1.221026         2.938788
 H        -1.488761        -0.425976         2.860768
 H        -5.167636         0.922214         1.380102
 H        -4.781756         2.443844         0.436454
 H        -4.197592         0.066861        -0.758900
 H        -3.002071         1.486673        -0.931412
 H        -2.735779        -0.861739         1.249498
