19
Iteration:  3587charge 0 multiplicity 1
 O         0.087646        -0.251670         0.143142
 C        -0.919108         0.394023         0.811123
 C        -1.151278         1.954164         0.692583
 C        -2.262465         1.294810         1.631651
 C        -1.246939         0.545027         2.377740
 O        -3.389956         1.962363         1.968680
 C        -4.421005         1.211053         0.994285
 C        -3.710872         0.684216        -0.239432
 C        -2.479704         0.142967         0.627004
 H         0.600251        -0.909875         0.592025
 H        -0.331747         2.613398         1.021223
 H        -1.423086         2.289834        -0.366511
 H        -0.345287         1.162126         2.790319
 H        -1.529539        -0.233510         3.151870
 H        -4.866836         0.309474         1.543821
 H        -5.310156         1.918124         0.830368
 H        -4.041211        -0.222502        -0.719262
 H        -3.328951         1.502220        -0.869394
 H        -2.951972        -0.708043         1.124186
