19
Iteration:  4816
 O         0.191112        -0.284973         0.198369
 C        -0.883021         0.427904         0.777553
 C        -1.201377         1.946615         0.569849
 C        -2.261877         1.333242         1.711986
 C        -1.023141         0.575464         2.276461
 O        -3.567571         1.805728         2.074504
 C        -4.437972         1.561729         0.806296
 C        -3.820677         0.416391        -0.054562
 C        -2.456516         0.110395         0.746112
 H         0.419256        -0.002071        -0.677190
 H        -0.439339         2.530230         1.124830
 H        -1.531072         2.276551        -0.438390
 H        -0.196855         1.235218         2.690209
 H        -1.279842        -0.405486         2.845225
 H        -5.443893         1.413979         1.163278
 H        -4.404061         2.454982         0.346030
 H        -4.488084        -0.582685        -0.256139
 H        -3.571909         0.743945        -1.036608
 H        -2.688285        -0.662009         1.510946
