19
Iteration:  2265charge 0 multiplicity 1
 O         0.192715        -0.191754         0.171380
 C        -0.930783         0.414195         0.775463
 C        -1.340423         1.936309         0.775821
 C        -2.330811         1.183894         1.713415
 C        -1.039523         0.431738         2.343351
 O        -3.540119         1.788103         2.050407
 C        -4.260948         1.706509         0.768448
 C        -3.710905         0.554867        -0.089634
 C        -2.509401         0.027843         0.668989
 H         0.255144        -0.050954        -0.763493
 H        -0.708951         2.646045         1.281722
 H        -1.646925         2.355378        -0.163554
 H        -0.461121         1.093477         2.851669
 H        -1.092142        -0.575198         2.772094
 H        -5.296921         1.554475         1.011160
 H        -4.179581         2.630430         0.196885
 H        -4.325466        -0.371833        -0.368484
 H        -3.566620         0.917186        -1.119415
 H        -2.607350        -1.009422         0.928865
