19
Iteration:    19
 O         0.043045        -0.278715         0.014366
 C        -0.949447         0.428464         0.819758
 C        -1.098789         1.895018         0.782017
 C        -2.343774         1.200700         1.758771
 C        -1.138517         0.449855         2.456743
 O        -3.609417         1.811632         1.970957
 C        -4.475010         1.335883         0.842733
 C        -3.442583         0.899894        -0.210567
 C        -2.468366         0.121664         0.678229
 H         0.837592        -0.187394         0.541626
 H        -0.362689         2.534528         1.219855
 H        -1.330936         2.405344        -0.261200
 H        -0.405766         1.120372         2.832073
 H        -1.389398        -0.503899         3.068688
 H        -5.141594         0.459251         1.154235
 H        -5.144092         2.116853         0.486769
 H        -3.869294         0.415377        -1.094385
 H        -3.014519         1.804118        -0.591087
 H        -2.791842        -0.875178         0.976818
