19
Iteration:  4272
 O         0.193994        -0.113514         0.094715
 C        -0.860635         0.400037         0.814499
 C        -1.235064         1.854614         0.611869
 C        -2.283895         1.280402         1.657120
 C        -1.063579         0.476874         2.353643
 O        -3.482016         1.931138         1.911702
 C        -4.447859         1.404525         0.900923
 C        -3.688842         0.569618        -0.083010
 C        -2.586450         0.094004         0.827730
 H         0.562665        -1.013155         0.408459
 H        -0.599935         2.713509         0.944250
 H        -1.726381         2.113548        -0.368225
 H        -0.417936         1.119329         2.994394
 H        -1.349782        -0.482783         2.861082
 H        -5.102313         0.717845         1.411542
 H        -4.919753         2.349120         0.411208
 H        -4.247191        -0.145604        -0.597602
 H        -3.357643         1.175810        -0.988749
 H        -2.895541        -0.781763         1.457326
