19
Iteration:  3180charge 0 multiplicity 1
 O         0.209014         0.011577         0.165199
 C        -0.920333         0.422574         0.775823
 C        -1.422857         1.798092         0.598300
 C        -2.317765         1.121055         1.688816
 C        -1.132831         0.501937         2.354241
 O        -3.507738         1.734371         2.055593
 C        -4.129329         1.740898         0.754367
 C        -3.753433         0.525490        -0.104474
 C        -2.503038         0.023636         0.772435
 H         0.429663        -0.931371         0.117784
 H        -0.859329         2.724259         0.983519
 H        -1.802483         1.897682        -0.449775
 H        -0.438689         1.145684         2.802101
 H        -1.365344        -0.458927         2.935328
 H        -5.136304         1.647060         1.145228
 H        -3.767683         2.680332         0.326023
 H        -4.636917        -0.079745         0.074711
 H        -3.610279         0.609284        -1.191661
 H        -2.538544        -0.969482         1.286363
