19
Iteration:   628
 O         0.046634        -0.204900         0.061873
 C        -0.972888         0.444124         0.732485
 C        -1.232547         1.866022         0.686173
 C        -2.313426         1.279388         1.734755
 C        -1.198895         0.562442         2.449570
 O        -3.493776         1.741251         2.044873
 C        -4.356207         1.456078         0.867626
 C        -3.531194         0.703050        -0.173899
 C        -2.449779        -0.008001         0.662016
 H         0.823438         0.225850         0.325387
 H        -0.452229         2.599446         1.185276
 H        -1.286159         2.277018        -0.380825
 H        -0.369201         1.128360         3.085670
 H        -1.455199        -0.313223         3.027520
 H        -5.191487         0.819286         1.248192
 H        -4.878303         2.392744         0.483265
 H        -4.339762         0.129951        -0.736213
 H        -3.056844         1.336863        -0.880091
 H        -2.649614        -1.023318         1.061117
