19
Iteration:  2656
 O         0.151243        -0.286879         0.106935
 C        -0.875711         0.429711         0.699709
 C        -1.242267         1.892760         0.782963
 C        -2.298823         1.240159         1.751517
 C        -1.098728         0.480152         2.336754
 O        -3.536958         1.893722         1.990104
 C        -4.453520         1.540320         0.865537
 C        -3.573383         0.586899        -0.180836
 C        -2.499134         0.062873         0.780705
 H         0.483805         0.340588        -0.627231
 H        -0.557489         2.429109         1.364079
 H        -1.568689         2.479681        -0.083228
 H        -0.322354         1.180799         2.778893
 H        -1.415311        -0.404772         2.973923
 H        -5.380058         0.948630         1.281599
 H        -4.900407         2.459677         0.583753
 H        -4.277976        -0.221363        -0.559488
 H        -3.176621         0.999792        -1.155916
 H        -2.874627        -0.921243         1.092035
