19
Iteration:  3379charge 0 multiplicity 1
 O         0.108797        -0.225332         0.055272
 C        -0.958637         0.334413         0.800821
 C        -1.321295         1.908294         0.717642
 C        -2.294862         1.353197         1.658942
 C        -1.165859         0.503352         2.363564
 O        -3.536468         1.835166         1.981873
 C        -4.364561         1.453266         0.913701
 C        -3.466414         0.658855        -0.157914
 C        -2.460333         0.098479         0.728096
 H         0.577417        -1.044244         0.344897
 H        -0.504303         2.620979         1.085462
 H        -1.723612         2.389225        -0.212537
 H        -0.325189         1.044741         2.895878
 H        -1.484070        -0.344245         2.967399
 H        -5.140150         0.778556         1.344409
 H        -5.044145         2.253039         0.512233
 H        -4.104220        -0.027024        -0.671075
 H        -3.019021         1.406945        -0.882716
 H        -2.670917        -0.751884         1.352198
