19
Iteration:  4109
 O         0.157513        -0.186267         0.102237
 C        -0.895354         0.439328         0.774386
 C        -1.275126         1.888554         0.575342
 C        -2.334507         1.238420         1.677270
 C        -1.043442         0.608181         2.334474
 O        -3.573079         1.825980         2.066802
 C        -4.383118         1.574996         0.804308
 C        -3.702478         0.453157        -0.030216
 C        -2.427376         0.041416         0.764591
 H         0.591449        -0.703824         0.737697
 H        -0.454627         2.643365         0.671270
 H        -1.746897         2.186469        -0.376326
 H        -0.231616         1.270928         2.778394
 H        -1.297605        -0.381634         2.887902
 H        -5.322590         1.313014         1.167441
 H        -4.400758         2.563168         0.303694
 H        -4.364281        -0.229994        -0.261913
 H        -3.490180         0.845138        -1.004652
 H        -2.562418        -0.870700         1.224950
