19
Iteration:  4418charge 0 multiplicity 1
 O         0.177089        -0.164252         0.036520
 C        -0.880125         0.457678         0.778153
 C        -1.262427         1.978141         0.675882
 C        -2.282862         1.303118         1.649042
 C        -1.088136         0.528532         2.371164
 O        -3.540423         1.748379         1.986581
 C        -4.317485         1.603066         0.780756
 C        -3.765352         0.404090         0.002032
 C        -2.452244         0.046033         0.768239
 H         0.293985        -0.938688         0.563903
 H        -0.567477         2.696884         1.286086
 H        -1.638130         2.275713        -0.374756
 H        -0.300505         1.213366         2.816024
 H        -1.553712        -0.384036         2.930331
 H        -5.414879         1.615901         1.151443
 H        -4.279568         2.594874         0.165277
 H        -4.455081        -0.438792        -0.094449
 H        -3.652750         0.699980        -0.983550
 H        -2.692664        -0.729778         1.493800
