19
Iteration:  2324charge 0 multiplicity 1
 O         0.131074        -0.323885         0.217903
 C        -0.950979         0.395592         0.741785
 C        -1.250148         2.012777         0.743504
 C        -2.299676         1.280958         1.672999
 C        -1.038357         0.514954         2.344584
 O        -3.548089         1.705801         2.055957
 C        -4.443158         1.557995         0.834042
 C        -3.593133         0.697819        -0.176236
 C        -2.465630         0.096264         0.664961
 H        -0.115748        -0.498424        -0.694074
 H        -0.517404         2.648895         1.236058
 H        -1.520693         2.274130        -0.263043
 H        -0.190367         1.188019         2.806795
 H        -1.028029        -0.399633         2.882671
 H        -5.244887         0.970323         1.335384
 H        -4.860638         2.607999         0.617371
 H        -4.123686        -0.180924        -0.438942
 H        -3.257032         1.397679        -1.015638
 H        -2.640166        -1.001501         0.885919
