19
Iteration:  2092charge 0 multiplicity 1
 O         0.171558        -0.285037         0.230533
 C        -0.930973         0.341364         0.814389
 C        -1.225811         1.929949         0.688169
 C        -2.254892         1.290391         1.675812
 C        -1.097795         0.404996         2.341040
 O        -3.533025         1.913553         1.930663
 C        -4.501677         1.316940         1.012362
 C        -3.613304         0.847458        -0.247657
 C        -2.461562         0.144936         0.671763
 H         0.130263        -0.001446        -0.763351
 H        -0.530338         2.650003         1.081144
 H        -1.661521         2.272028        -0.206263
 H        -0.187057         0.767907         2.848238
 H        -1.321442        -0.539814         2.906365
 H        -4.897174         0.401097         1.548287
 H        -5.272609         2.066552         0.631728
 H        -3.943330        -0.010370        -0.712270
 H        -3.307996         1.656596        -0.861609
 H        -2.853772        -0.829963         1.116670
