19
Iteration:  1676
 O         0.054272        -0.265346         0.033540
 C        -0.925366         0.482456         0.782019
 C        -1.137562         1.969533         0.744052
 C        -2.254840         1.252992         1.618741
 C        -1.125717         0.492641         2.445260
 O        -3.521240         1.846166         2.040421
 C        -4.474114         1.418483         0.874081
 C        -3.676241         0.579609        -0.146048
 C        -2.412739         0.082111         0.687944
 H         0.986080        -0.028601         0.411989
 H        -0.503340         2.699845         1.342383
 H        -1.521959         2.352701        -0.232149
 H        -0.523093         1.073614         3.011226
 H        -1.464673        -0.556132         2.590239
 H        -5.401943         1.006626         1.273863
 H        -4.629590         2.283487         0.331552
 H        -4.204922        -0.176497        -0.740919
 H        -3.170869         1.308359        -0.900094
 H        -2.682557        -0.795084         1.287727
