19
Iteration:  1295
 O         0.099366        -0.241792         0.032679
 C        -0.984909         0.358852         0.820877
 C        -1.259404         1.958023         0.784142
 C        -2.279700         1.347337         1.718983
 C        -1.123808         0.502057         2.305797
 O        -3.548618         1.893398         2.021423
 C        -4.423092         1.425872         0.883665
 C        -3.510602         0.575253        -0.172454
 C        -2.459899         0.033425         0.671290
 H         0.947804         0.031126         0.534777
 H        -0.538382         2.508315         1.331680
 H        -1.583441         2.509667        -0.148551
 H        -0.281864         0.947104         2.797804
 H        -1.441161        -0.534319         2.698765
 H        -5.179231         0.965647         1.373958
 H        -4.917705         2.314367         0.446059
 H        -4.129308        -0.079027        -0.633315
 H        -3.141377         1.193748        -0.998992
 H        -2.718325        -0.894307         1.214356
