19
Iteration:  1948charge 0 multiplicity 1
 O         0.009195        -0.274703         0.080581
 C        -0.959933         0.488915         0.758102
 C        -1.311613         2.027917         0.784877
 C        -2.267808         1.182732         1.714590
 C        -1.074022         0.522235         2.331619
 O        -3.540150         1.697080         2.088268
 C        -4.252286         1.629769         0.705764
 C        -3.650882         0.498464        -0.117053
 C        -2.454267         0.118035         0.702597
 H         0.835733         0.230548         0.229355
 H        -0.547557         2.444768         1.346591
 H        -1.522004         2.352239        -0.190660
 H        -0.309555         1.116568         2.768370
 H        -1.278965        -0.489858         2.920403
 H        -5.306893         1.489210         1.093894
 H        -4.158344         2.728976         0.261976
 H        -4.148771        -0.424848        -0.066486
 H        -3.435263         0.893809        -1.119877
 H        -2.655782        -0.925002         1.122147
