19
Iteration:  2972
 O         0.049119        -0.216448         0.065443
 C        -1.012770         0.420323         0.823926
 C        -1.281134         1.946527         0.656750
 C        -2.251235         1.280412         1.744462
 C        -1.099916         0.627339         2.388846
 O        -3.525642         1.738678         2.054713
 C        -4.290209         1.452918         0.858071
 C        -3.506452         0.633120        -0.201895
 C        -2.491310         0.061652         0.685138
 H         0.116388        -1.133939         0.380533
 H        -0.500359         2.568906         1.089609
 H        -1.478376         2.478430        -0.331510
 H        -0.336133         1.130755         2.784960
 H        -1.468333        -0.202024         2.977131
 H        -5.201120         0.940606         1.358165
 H        -4.623840         2.461522         0.431125
 H        -4.346609        -0.094724        -0.492294
 H        -3.180034         1.155099        -1.063712
 H        -2.823249        -0.927749         1.113288
