19
Iteration:   281charge 0 multiplicity 1
 O         0.068508        -0.246067         0.110805
 C        -0.829783         0.535241         0.822560
 C        -1.143041         1.993671         0.825936
 C        -2.371635         1.161946         1.719371
 C        -1.126162         0.486452         2.369074
 O        -3.577292         1.643844         2.066992
 C        -4.397000         1.535274         0.814613
 C        -3.600325         0.718290        -0.236776
 C        -2.398700         0.147489         0.566696
 H        -0.236358        -1.175143         0.163100
 H        -0.704282         2.709391         1.457131
 H        -1.402514         2.328521        -0.215832
 H        -0.459504         1.101171         2.984566
 H        -1.348458        -0.484490         2.890290
 H        -5.373864         1.176235         1.182857
 H        -4.412621         2.578601         0.444844
 H        -4.241768        -0.171169        -0.555327
 H        -3.351319         1.343041        -1.118762
 H        -2.589867        -0.913571         0.979166
