19
Iteration:  1111
 O         0.000029        -0.171923         0.108436
 C        -0.939273         0.414106         0.841705
 C        -1.336133         1.838541         0.681492
 C        -2.269116         1.248395         1.653290
 C        -1.138968         0.520205         2.410197
 O        -3.545804         1.701213         2.031910
 C        -4.218589         1.614714         0.851234
 C        -3.546444         0.577329        -0.166558
 C        -2.427661         0.031775         0.723689
 H         0.764338         0.433280        -0.157081
 H        -0.732299         2.675143         1.026877
 H        -1.854194         2.094585        -0.315034
 H        -0.449885         1.153272         2.827300
 H        -1.539581        -0.379892         3.000503
 H        -5.257982         1.396489         1.000888
 H        -4.192395         2.574293         0.312643
 H        -4.223446        -0.093053        -0.627733
 H        -3.289499         1.379662        -0.974697
 H        -2.644805        -0.857133         1.359481
