19
Iteration:  4490charge 0 multiplicity 1
 O         0.112727        -0.192273         0.118495
 C        -0.981376         0.402264         0.720063
 C        -1.159139         1.909364         0.574301
 C        -2.274885         1.278794         1.725467
 C        -1.086083         0.684447         2.416405
 O        -3.516702         1.786034         2.037278
 C        -4.382500         1.460122         0.867868
 C        -3.690280         0.538188        -0.137966
 C        -2.489372         0.078097         0.775009
 H         0.178691        -1.141313         0.351583
 H        -0.455578         2.635755         0.859439
 H        -1.332766         2.200522        -0.466144
 H        -0.292733         1.246453         2.852961
 H        -1.246247        -0.194354         2.995172
 H        -5.238681         1.017297         1.297746
 H        -4.763404         2.463248         0.586311
 H        -4.352437        -0.290604        -0.471224
 H        -3.279092         1.168418        -1.156488
 H        -2.654654        -1.017778         1.001170
