19
Iteration:  4470charge 0 multiplicity 1
 O         0.109100        -0.230131         0.055851
 C        -0.882031         0.406239         0.861668
 C        -1.360048         1.830678         0.582797
 C        -2.264674         1.323017         1.575765
 C        -1.063037         0.631192         2.308255
 O        -3.573631         1.765371         2.061682
 C        -4.398146         1.514064         0.879619
 C        -3.521139         0.569813        -0.072180
 C        -2.476487         0.054166         0.789487
 H         0.447113        -0.921456         0.566218
 H        -0.600028         2.581064         0.861593
 H        -1.802240         2.331395        -0.279485
 H        -0.362408         1.282897         2.743687
 H        -1.244692        -0.216681         2.956065
 H        -5.379313         1.165935         1.065985
 H        -4.551571         2.565494         0.618509
 H        -4.142149        -0.161076        -0.502670
 H        -3.071160         1.341810        -0.911853
 H        -2.937887        -0.689353         1.527009
