19
Iteration:   398charge 0 multiplicity 1
 O         0.129928        -0.249181         0.167936
 C        -0.932172         0.389579         0.791664
 C        -1.193898         1.948886         0.751486
 C        -2.266524         1.262374         1.672160
 C        -1.173603         0.493249         2.364990
 O        -3.468219         1.780925         2.028759
 C        -4.477247         1.319363         0.906096
 C        -3.615097         0.782585        -0.224141
 C        -2.458813         0.167794         0.542510
 H         0.749143        -0.672944         0.707214
 H        -0.366289         2.545374         1.132812
 H        -1.610293         2.445668        -0.253879
 H        -0.549601         1.054987         3.046940
 H        -1.365492        -0.509273         2.930895
 H        -5.171948         0.563557         1.324099
 H        -4.974524         2.322802         0.582224
 H        -4.290444         0.163275        -0.928900
 H        -3.352784         1.719304        -0.779979
 H        -2.907174        -0.710274         1.064695
