19
Iteration:  1013charge 0 multiplicity 1
 O        -0.015115        -0.246163         0.040635
 C        -0.868540         0.389669         0.845853
 C        -1.145883         1.915302         0.739147
 C        -2.253703         1.283958         1.623537
 C        -1.127676         0.527614         2.406204
 O        -3.519908         1.868512         1.894484
 C        -4.526875         1.289166         0.926560
 C        -3.540613         0.743550        -0.159643
 C        -2.469618         0.086567         0.740497
 H         1.000458        -0.319735         0.165037
 H        -0.619935         2.598361         1.340782
 H        -1.516768         2.355576        -0.234606
 H        -0.465800         1.068890         2.993753
 H        -1.426513        -0.400064         2.998319
 H        -5.050791         0.540004         1.494091
 H        -5.201958         2.128285         0.757255
 H        -4.010128         0.257663        -0.973143
 H        -2.981268         1.574695        -0.705307
 H        -2.641772        -0.794079         1.359985
