19
Iteration:  3800charge 0 multiplicity 1
 O         0.180015        -0.383146         0.225157
 C        -0.942196         0.463117         0.753822
 C        -1.374752         2.000207         0.652948
 C        -2.349154         1.238716         1.686840
 C        -1.026889         0.661170         2.321136
 O        -3.559042         1.790375         2.070098
 C        -4.331303         1.591297         0.841139
 C        -3.629075         0.486108        -0.137475
 C        -2.407308         0.037360         0.695201
 H         0.364940        -0.256306        -0.667231
 H        -0.799376         2.942123         0.878604
 H        -2.001791         2.110077        -0.312275
 H        -0.159134         1.394563         2.710655
 H        -1.205745        -0.255901         3.074042
 H        -5.104639         1.054898         1.361128
 H        -4.443525         2.616126         0.348257
 H        -4.433995        -0.219911        -0.355979
 H        -3.533471         1.077187        -1.033127
 H        -2.551400        -0.924036         1.152138
