19
Iteration:   448charge 0 multiplicity 1
 O         0.065558        -0.184515         0.112023
 C        -0.917860         0.442384         0.808870
 C        -1.128423         1.972288         0.840468
 C        -2.251496         1.338420         1.625049
 C        -1.185522         0.461760         2.387269
 O        -3.521529         1.719210         1.958407
 C        -4.417185         1.448293         0.880156
 C        -3.569224         0.614284        -0.223335
 C        -2.428463         0.111730         0.715733
 H        -0.411121        -0.678889        -0.645877
 H        -0.350355         2.598822         1.312855
 H        -1.697261         2.389996         0.028043
 H        -0.418222         1.000125         2.959213
 H        -1.520202        -0.389668         2.982381
 H        -5.267123         0.881631         1.291843
 H        -4.857739         2.345726         0.516461
 H        -4.076570        -0.182075        -0.706621
 H        -3.246125         1.362157        -0.972955
 H        -2.738483        -0.754012         1.330964
