19
Iteration:  4936charge 0 multiplicity 1
 O         0.092085        -0.294135         0.200347
 C        -0.966604         0.402042         0.759911
 C        -1.247089         1.968411         0.585717
 C        -2.250746         1.332123         1.695598
 C        -1.052084         0.499178         2.306590
 O        -3.468775         1.889128         1.976585
 C        -4.404554         1.481712         0.957047
 C        -3.700217         0.470128        -0.052220
 C        -2.445698         0.108473         0.641224
 H         0.880356         0.308208         0.072505
 H        -0.512712         2.721353         0.973577
 H        -1.768339         2.176299        -0.323914
 H        -0.422120         1.093785         2.956312
 H        -1.435308        -0.459242         2.730323
 H        -5.300529         1.013536         1.461992
 H        -4.666000         2.366099         0.327384
 H        -4.508735        -0.269886        -0.499742
 H        -3.450831         1.093739        -0.853686
 H        -2.645778        -0.912772         1.233305
