19
Iteration:  1730
 O         0.048879        -0.350515         0.110527
 C        -0.899921         0.458155         0.834622
 C        -1.193441         1.965266         0.705370
 C        -2.264858         1.301089         1.631903
 C        -1.179391         0.530895         2.359957
 O        -3.480907         1.816414         1.950034
 C        -4.441205         1.309298         1.016596
 C        -3.594950         0.721985        -0.170712
 C        -2.459503         0.124277         0.646206
 H         0.876074         0.240162        -0.060770
 H        -0.410058         2.654748         1.185804
 H        -1.553828         2.433056        -0.230519
 H        -0.409688         1.022505         2.943254
 H        -1.757203        -0.238412         3.010743
 H        -5.085429         0.541188         1.350720
 H        -5.172322         2.020592         0.781016
 H        -4.070826         0.069844        -0.908758
 H        -3.047373         1.520900        -0.802723
 H        -2.722792        -0.858594         1.106541
