19
Iteration:  1886charge 0 multiplicity 1
 O         0.079338        -0.203006         0.091251
 C        -0.975456         0.362805         0.781581
 C        -1.338791         1.921614         0.681757
 C        -2.316050         1.227725         1.693132
 C        -1.024375         0.517820         2.426090
 O        -3.550191         1.719914         2.075798
 C        -4.317399         1.681695         0.854604
 C        -3.623291         0.561974        -0.174203
 C        -2.491167         0.045546         0.716767
 H         0.809523         0.448999         0.061451
 H        -0.315002         2.524811         0.947131
 H        -1.555629         2.367122        -0.339958
 H        -0.182636         1.123539         2.912706
 H        -1.228644        -0.436144         2.953482
 H        -5.293165         1.309629         1.011083
 H        -4.100978         2.520399         0.275285
 H        -4.225558        -0.332753        -0.630884
 H        -3.257601         1.119958        -1.100259
 H        -2.752823        -0.955504         1.121778
