19
Iteration:  2282charge 0 multiplicity 1
 O         0.147245        -0.141061         0.187726
 C        -0.957474         0.415869         0.809831
 C        -1.317898         1.850611         0.670802
 C        -2.281027         1.186813         1.708326
 C        -1.143564         0.452156         2.365891
 O        -3.512363         1.727566         2.040779
 C        -4.332168         1.709173         0.865439
 C        -3.600435         0.619906        -0.190588
 C        -2.407310         0.037475         0.684060
 H        -0.024639        -0.192861        -0.725322
 H        -0.508244         2.591325         0.982990
 H        -1.865977         2.134388        -0.273735
 H        -0.176497         1.087781         2.829471
 H        -1.532771        -0.509290         2.800525
 H        -5.355615         1.295109         1.106950
 H        -4.419791         2.753947         0.424373
 H        -4.359673        -0.116987        -0.169696
 H        -3.341258         0.942019        -1.241948
 H        -2.752355        -0.837982         1.288773
