19
Iteration:  1806
 O         0.107792        -0.253465         0.013172
 C        -0.926144         0.399541         0.717557
 C        -1.244636         1.902815         0.657233
 C        -2.298607         1.256826         1.725361
 C        -1.137372         0.524900         2.435486
 O        -3.531680         1.886933         2.034239
 C        -4.410568         1.461865         0.953236
 C        -3.544071         0.672091        -0.209725
 C        -2.452466         0.034873         0.724202
 H         0.890156        -0.226024         0.569389
 H        -0.779348         2.687536         1.352415
 H        -1.663824         2.268361        -0.271429
 H        -0.443023         1.076343         2.997312
 H        -1.337840        -0.466715         3.016656
 H        -5.235689         0.741789         1.259534
 H        -5.031200         2.207830         0.386685
 H        -4.119300        -0.128361        -0.681478
 H        -3.152643         1.388641        -1.010269
 H        -2.841164        -0.919903         1.210569
