19
Iteration:  2024charge 0 multiplicity 1
 O         0.133882        -0.340214         0.115223
 C        -0.893508         0.416826         0.744983
 C        -1.197331         1.984435         0.712870
 C        -2.254363         1.260311         1.681072
 C        -1.126707         0.454533         2.310021
 O        -3.559391         1.877710         2.054183
 C        -4.517023         1.434217         0.854941
 C        -3.585890         0.645655        -0.178486
 C        -2.461924         0.123548         0.745908
 H         0.786220         0.358153        -0.010634
 H        -0.551145         2.616843         1.265892
 H        -1.660236         2.480930        -0.103632
 H        -0.426420         0.954739         2.951814
 H        -1.369455        -0.599274         2.825728
 H        -5.338485         0.819250         1.338682
 H        -4.696736         2.502673         0.640668
 H        -4.137180        -0.172910        -0.514241
 H        -3.276979         1.302553        -1.007945
 H        -2.745094        -0.903827         1.080006
