19
Iteration:  1491charge 0 multiplicity 1
 O         0.101890        -0.261015         0.121204
 C        -0.915986         0.427737         0.792631
 C        -1.293929         1.960187         0.611724
 C        -2.287324         1.255564         1.733046
 C        -1.067764         0.570200         2.372963
 O        -3.526711         1.651214         2.142106
 C        -4.381197         1.568246         0.796239
 C        -3.619379         0.641515        -0.260474
 C        -2.514278         0.037739         0.755108
 H         1.037289         0.032275         0.397091
 H        -0.764244         2.769941         1.039550
 H        -1.507622         2.193404        -0.442127
 H        -0.248914         1.033819         2.829016
 H        -1.411320        -0.451026         2.712313
 H        -5.376820         1.233549         1.225242
 H        -4.327192         2.653011         0.495071
 H        -4.276563        -0.050514        -0.738868
 H        -3.248658         1.356064        -1.053435
 H        -2.788664        -0.761388         1.346896
