19
Iteration:  3291charge 0 multiplicity 1
 O         0.179957        -0.174125         0.194940
 C        -0.917060         0.370373         0.817100
 C        -1.148178         1.842025         0.625889
 C        -2.271718         1.314551         1.617601
 C        -1.118876         0.515948         2.385999
 O        -3.519449         1.878241         1.938655
 C        -4.491945         1.299592         1.058542
 C        -3.607070         0.765089        -0.186685
 C        -2.538461         0.131595         0.616474
 H        -0.073535        -1.142470         0.111926
 H        -0.394014         2.571844         1.186281
 H        -1.364653         2.249382        -0.390102
 H        -0.281781         0.978070         2.945971
 H        -1.452602        -0.338746         2.983516
 H        -4.955874         0.507444         1.694571
 H        -5.154214         2.106922         0.651340
 H        -4.212023         0.111248        -0.788492
 H        -3.183240         1.463837        -1.003884
 H        -3.034932        -0.835733         0.885685
