19
Iteration:  1154
 O         0.050308        -0.241718         0.027686
 C        -0.870692         0.436546         0.825586
 C        -1.344511         1.998546         0.873860
 C        -2.299813         1.288546         1.724948
 C        -1.034765         0.483615         2.349139
 O        -3.578019         1.709668         1.999274
 C        -4.292164         1.645776         0.762264
 C        -3.706927         0.463846        -0.140325
 C        -2.425140         0.090524         0.717720
 H         0.983568         0.140362         0.227285
 H        -0.542372         2.646076         1.247698
 H        -1.647803         2.283290        -0.224620
 H        -0.313526         1.028513         2.872353
 H        -1.315931        -0.507376         2.889038
 H        -5.352698         1.729462         0.945318
 H        -3.950554         2.512464         0.140030
 H        -4.318175        -0.390826        -0.290618
 H        -3.388271         0.858594        -1.207213
 H        -2.694991        -0.884629         1.245871
