19
Iteration:  4687charge 0 multiplicity 1
 O         0.114641        -0.307438         0.115709
 C        -0.910135         0.416662         0.768304
 C        -1.292263         1.913598         0.632947
 C        -2.293024         1.306106         1.640893
 C        -1.059026         0.598082         2.334173
 O        -3.508260         1.829392         1.985613
 C        -4.366430         1.532444         0.856022
 C        -3.680019         0.485923        -0.051114
 C        -2.511538         0.054502         0.831685
 H         0.850309         0.376208        -0.079800
 H        -0.537568         2.558872         1.149947
 H        -1.645297         2.253376        -0.373603
 H        -0.302701         1.307496         2.727990
 H        -1.119759        -0.374622         2.897892
 H        -5.270207         1.014857         1.310333
 H        -4.621337         2.462924         0.142396
 H        -4.377014        -0.209085        -0.496283
 H        -3.303202         1.187413        -0.853114
 H        -2.693010        -0.826143         1.433967
