19
Iteration:   530
 O         0.259069        -0.208123         0.143544
 C        -0.945203         0.448566         0.724598
 C        -1.374073         1.833537         0.600390
 C        -2.373365         1.134598         1.692629
 C        -1.139096         0.554196         2.473048
 O        -3.595695         1.616708         2.083684
 C        -4.334373         1.831908         0.914691
 C        -3.612785         0.626085        -0.170667
 C        -2.437902        -0.022309         0.679001
 H         0.694284         0.447003        -0.356541
 H        -0.721115         2.706375         0.933870
 H        -1.658065         2.079616        -0.500143
 H        -0.439003         1.312224         2.980382
 H        -1.277865        -0.440367         2.906070
 H        -5.399109         1.751386         1.251001
 H        -3.979913         2.784536         0.397305
 H        -4.095242        -0.347516        -0.517781
 H        -3.281117         1.143137        -1.052069
 H        -2.523713        -1.068384         1.001400
