19
Iteration:  4423
 O         0.138318        -0.176309         0.058613
 C        -0.950137         0.440336         0.832205
 C        -1.276464         1.973182         0.702141
 C        -2.259750         1.281561         1.647734
 C        -1.061338         0.568947         2.321174
 O        -3.536123         1.759837         1.985687
 C        -4.306985         1.584756         0.803523
 C        -3.761993         0.418372        -0.033107
 C        -2.443643         0.076362         0.750862
 H         0.520437        -1.007402         0.498859
 H        -0.737733         2.696145         1.228305
 H        -1.484002         2.271220        -0.285913
 H        -0.317562         1.173942         2.829621
 H        -1.386331        -0.278964         2.846605
 H        -5.308947         1.581778         1.178410
 H        -4.258992         2.363426         0.083162
 H        -4.453514        -0.488823        -0.032420
 H        -3.629964         0.879440        -1.096232
 H        -2.517848        -0.848186         1.376006
