19
Iteration:  2923
 O         0.231378        -0.133498         0.103350
 C        -0.982772         0.411538         0.733839
 C        -1.308418         1.925833         0.779584
 C        -2.264069         1.201146         1.652947
 C        -1.091529         0.511251         2.374056
 O        -3.568161         1.810293         2.056499
 C        -4.293052         1.674033         0.787718
 C        -3.729927         0.466595        -0.138523
 C        -2.463283         0.029838         0.751142
 H        -0.009894        -1.033046        -0.276852
 H        -0.547691         2.678831         1.033622
 H        -1.761450         2.391488        -0.081503
 H        -0.231037         1.202319         2.799511
 H        -1.163666        -0.492511         2.888390
 H        -5.187346         1.321327         1.243850
 H        -4.225837         2.648201         0.237678
 H        -4.466779        -0.293911        -0.212829
 H        -3.452655         0.781263        -1.195085
 H        -2.629957        -0.872830         1.353660
