19
Iteration:   229charge 0 multiplicity 1
 O         0.213748        -0.006402         0.144607
 C        -0.881057         0.398303         0.793980
 C        -1.314028         1.821292         0.704829
 C        -2.384721         1.105639         1.735891
 C        -1.086842         0.260941         2.391909
 O        -3.612367         1.708827         2.073599
 C        -4.303419         1.831046         0.810948
 C        -3.639481         0.651524        -0.213820
 C        -2.517517         0.024978         0.640103
 H         0.977091        -0.169105         0.652155
 H        -0.522060         2.625597         1.001620
 H        -1.736870         2.133672        -0.275716
 H        -0.435056         0.926016         2.977991
 H        -1.251993        -0.739279         2.717362
 H        -5.405590         1.796435         0.966903
 H        -4.071014         2.798951         0.438235
 H        -4.341707        -0.051722        -0.531299
 H        -3.274534         1.096091        -1.101328
 H        -2.704344        -0.984851         0.934807
