19
Iteration:  1686
 O         0.075023        -0.280954         0.039584
 C        -0.863642         0.395203         0.779267
 C        -1.235886         1.993794         0.794904
 C        -2.288378         1.344622         1.675901
 C        -1.140579         0.457100         2.373041
 O        -3.503692         1.838797         1.963677
 C        -4.469402         1.426916         0.896271
 C        -3.618280         0.625186        -0.187486
 C        -2.448860         0.052077         0.754185
 H         0.958744         0.134554         0.320310
 H        -0.442928         2.704007         1.133222
 H        -1.570144         2.310050        -0.238306
 H        -0.396958         0.984237         2.881082
 H        -1.133339        -0.508550         2.935075
 H        -5.238295         0.869171         1.329244
 H        -4.966512         2.246510         0.510078
 H        -4.232470        -0.032292        -0.803647
 H        -3.276259         1.474951        -0.863594
 H        -2.730171        -0.853032         1.340905
