19
Iteration:  2807
 O         0.056246        -0.311442         0.078169
 C        -0.915076         0.403351         0.766175
 C        -1.234513         1.942054         0.733724
 C        -2.290659         1.259180         1.652096
 C        -1.128921         0.530079         2.367383
 O        -3.534523         1.792875         2.034153
 C        -4.473309         1.514648         0.886171
 C        -3.540745         0.614109        -0.183727
 C        -2.427402         0.093904         0.752487
 H         0.791556         0.379190        -0.085658
 H        -0.413614         2.599850         1.235411
 H        -1.416968         2.423868        -0.266913
 H        -0.403743         1.182306         2.948452
 H        -1.236128        -0.430471         2.913892
 H        -5.289893         0.980558         1.396195
 H        -4.745522         2.510611         0.417246
 H        -4.233216        -0.167933        -0.546502
 H        -3.177472         1.210013        -1.021328
 H        -2.764149        -0.889390         1.154303
