19
Iteration:  2476charge 0 multiplicity 1
 O         0.150289        -0.276375         0.158475
 C        -0.960779         0.382471         0.719763
 C        -1.257980         1.901188         0.698147
 C        -2.317972         1.291162         1.644252
 C        -1.100174         0.558711         2.377783
 O        -3.529696         1.751820         2.071132
 C        -4.406168         1.487804         0.901272
 C        -3.510075         0.709517        -0.152480
 C        -2.468035         0.069842         0.685526
 H        -0.118837        -0.558305        -0.687226
 H        -0.774244         2.754731         1.203054
 H        -1.699658         2.326658        -0.202199
 H        -0.331169         1.210943         2.913739
 H        -1.502334        -0.439558         2.889725
 H        -5.172307         0.949726         1.391299
 H        -4.797865         2.441816         0.437990
 H        -4.184299         0.044765        -0.784568
 H        -3.055496         1.478169        -0.935909
 H        -2.696536        -0.832095         1.249653
