19
Iteration:   792
 O         0.088532        -0.207198         0.149045
 C        -0.927587         0.354001         0.829761
 C        -1.222687         1.900280         0.662604
 C        -2.321138         1.250395         1.675187
 C        -1.082521         0.542085         2.350313
 O        -3.605135         1.599101         2.132742
 C        -4.338303         1.643042         0.757243
 C        -3.640163         0.642035        -0.160250
 C        -2.413173         0.101314         0.686716
 H         0.733412         0.540523        -0.093519
 H        -0.454332         2.651606         1.019235
 H        -1.546899         2.093097        -0.317832
 H        -0.262640         1.246135         2.755133
 H        -1.156216        -0.435986         2.794622
 H        -5.357286         1.360982         1.020438
 H        -4.416961         2.720135         0.480613
 H        -4.395857        -0.200124        -0.349414
 H        -3.387457         1.138764        -1.064231
 H        -2.811719        -0.798953         1.268396
