19
Iteration:  4969
 O         0.232558        -0.309771         0.136193
 C        -0.952615         0.326525         0.777423
 C        -1.228603         1.822288         0.593607
 C        -2.307758         1.262131         1.666949
 C        -1.062933         0.689711         2.364368
 O        -3.523009         1.828728         2.040168
 C        -4.397347         1.464959         0.923626
 C        -3.635804         0.642130        -0.115759
 C        -2.537154         0.079403         0.720798
 H         0.091518         0.097779        -0.798311
 H        -0.466301         2.573601         0.881018
 H        -1.561008         2.219648        -0.338999
 H        -0.465030         1.479298         2.818206
 H        -1.274288        -0.107511         3.108768
 H        -5.186510         0.821376         1.483879
 H        -5.015865         2.316983         0.492036
 H        -4.474816         0.048175        -0.670662
 H        -3.293728         1.399471        -0.733059
 H        -2.894849        -0.809609         1.401622
