19
Iteration:  1093charge 0 multiplicity 1
 O         0.147351        -0.274109         0.093671
 C        -0.913533         0.390376         0.782446
 C        -1.316794         1.974750         0.646665
 C        -2.355980         1.202002         1.704312
 C        -1.138309         0.542765         2.443707
 O        -3.482699         1.723762         2.143215
 C        -4.335489         1.601620         0.748191
 C        -3.590010         0.626534        -0.242686
 C        -2.515141         0.050459         0.748587
 H         0.874084         0.438544        -0.023167
 H        -0.592350         2.725411         0.940539
 H        -1.599168         2.279090        -0.336034
 H        -0.461420         1.264764         3.029512
 H        -1.494482        -0.432775         2.759116
 H        -5.263952         1.192823         1.232194
 H        -4.570552         2.652028         0.598846
 H        -4.216552        -0.273905        -0.378912
 H        -3.154074         0.949616        -1.157150
 H        -2.836833        -0.864095         1.207957
