19
Iteration:  4923charge 0 multiplicity 1
 O         0.063355        -0.309363         0.149745
 C        -0.958323         0.468312         0.688333
 C        -1.292218         1.957173         0.684832
 C        -2.227146         1.340461         1.646501
 C        -1.175182         0.556984         2.285695
 O        -3.420460         1.891842         1.984659
 C        -4.332739         1.460214         0.914654
 C        -3.687954         0.494498        -0.074420
 C        -2.449194         0.053018         0.731159
 H         0.852507         0.100741         0.553927
 H        -0.538178         2.597058         1.102438
 H        -1.648384         2.483823        -0.204612
 H        -0.356312         1.006817         2.800405
 H        -1.420728        -0.372873         2.752659
 H        -5.245504         0.975513         1.453089
 H        -4.775576         2.464251         0.488408
 H        -4.235461        -0.508327        -0.062830
 H        -3.563323         0.798184        -1.058354
 H        -2.545425        -1.032780         1.131927
