19
Iteration:    68charge 0 multiplicity 1
 O         0.011890        -0.374755         0.216126
 C        -0.877050         0.570508         0.705214
 C        -1.057820         2.026480         0.901903
 C        -2.243964         1.262253         1.659780
 C        -1.295348         0.322771         2.376488
 O        -3.505002         1.858661         1.921959
 C        -4.469484         1.254112         1.034990
 C        -3.640237         0.760848        -0.261641
 C        -2.379397         0.281742         0.462700
 H         0.949351        -0.165399         0.512364
 H        -0.209474         2.466033         1.595099
 H        -1.310771         2.661473         0.171215
 H        -0.686429         0.764833         3.212789
 H        -1.595860        -0.635726         2.333942
 H        -5.018137         0.387758         1.378611
 H        -5.223694         2.018931         0.687275
 H        -4.071471        -0.070320        -0.821795
 H        -3.459640         1.621189        -1.005634
 H        -2.591466        -0.735917         0.802845
