19
Iteration:  4637
 O         0.214085        -0.323847         0.195341
 C        -0.792959         0.424433         0.779284
 C        -1.253071         1.940513         0.596557
 C        -2.270974         1.238791         1.607722
 C        -1.121483         0.570425         2.349471
 O        -3.480048         1.929917         1.942986
 C        -4.504036         1.467529         1.014989
 C        -3.697778         0.577896        -0.124901
 C        -2.498462         0.034103         0.747503
 H         0.360585        -0.022890        -0.676665
 H        -0.643753         2.733760         1.031731
 H        -1.641286         2.187756        -0.379520
 H        -0.503754         1.229504         2.955362
 H        -1.435187        -0.313499         2.879413
 H        -5.278542         0.868853         1.460798
 H        -4.938077         2.243810         0.477846
 H        -4.215106        -0.353038        -0.367925
 H        -3.576821         1.352023        -0.920366
 H        -2.860440        -0.871139         1.315542
