19
Iteration:  3958
 O         0.086190        -0.330477         0.157989
 C        -0.970661         0.474615         0.746365
 C        -1.248607         1.999863         0.538483
 C        -2.265940         1.287806         1.693898
 C        -1.099551         0.688864         2.322173
 O        -3.549244         1.894073         2.077362
 C        -4.370879         1.291983         0.893078
 C        -3.577102         0.616254        -0.145958
 C        -2.457860         0.074168         0.726903
 H         0.237177        -0.998155         0.800442
 H        -0.497531         2.522279         1.134075
 H        -1.531327         2.401966        -0.416762
 H        -0.338878         1.166482         2.856601
 H        -1.196558        -0.314159         2.708881
 H        -5.045983         0.499699         1.390540
 H        -4.999354         2.167604         0.485038
 H        -4.129904        -0.258612        -0.631402
 H        -3.152563         1.363964        -0.903785
 H        -2.714466        -0.964995         1.144261
