19
Iteration:  1496
 O         0.120807        -0.243703         0.095910
 C        -0.917390         0.392636         0.776862
 C        -1.319387         1.942098         0.594356
 C        -2.284669         1.275062         1.732448
 C        -1.080568         0.544238         2.401327
 O        -3.542858         1.656660         2.120722
 C        -4.377722         1.537961         0.809329
 C        -3.608769         0.655826        -0.264142
 C        -2.492912         0.087571         0.756084
 H         0.981291         0.006215         0.420373
 H        -0.554222         2.680121         1.077685
 H        -1.727686         2.182670        -0.401194
 H        -0.237035         1.117245         2.969705
 H        -1.429415        -0.383018         2.900640
 H        -5.372540         1.406835         1.194696
 H        -4.187678         2.556478         0.527329
 H        -4.333452        -0.128646        -0.632733
 H        -3.217469         1.385112        -0.925081
 H        -2.859875        -0.867735         1.360376
