19
Iteration:  3383
 O         0.090523        -0.210394         0.053872
 C        -0.955657         0.375620         0.793807
 C        -1.304135         1.881338         0.726094
 C        -2.300601         1.326340         1.671270
 C        -1.152444         0.540896         2.355748
 O        -3.507014         1.829496         2.002592
 C        -4.374937         1.444997         0.869108
 C        -3.466097         0.664247        -0.139765
 C        -2.477815         0.092494         0.748593
 H         0.438022        -1.051999         0.426872
 H        -0.556677         2.581052         1.111439
 H        -1.697255         2.370724        -0.203339
 H        -0.352005         1.031961         2.854469
 H        -1.482844        -0.327981         2.912108
 H        -5.126054         0.715489         1.212100
 H        -4.889151         2.365017         0.487906
 H        -4.200871        -0.030054        -0.707103
 H        -3.009153         1.270409        -0.909711
 H        -2.742937        -0.937190         1.244701
