19
Iteration:  1577charge 0 multiplicity 1
 O         0.062220        -0.176055         0.019996
 C        -0.885845         0.452878         0.789902
 C        -1.216086         1.907515         0.716429
 C        -2.320030         1.163242         1.695875
 C        -1.122339         0.531918         2.411423
 O        -3.624870         1.700651         2.083756
 C        -4.267060         1.718943         0.758145
 C        -3.633237         0.491132        -0.051446
 C        -2.440358         0.005999         0.731650
 H         0.830527         0.423136        -0.207565
 H        -0.601611         2.694917         1.171685
 H        -1.605151         2.308187        -0.306065
 H        -0.557901         1.156041         3.064863
 H        -1.294913        -0.522726         2.764791
 H        -5.365367         1.596600         0.890369
 H        -4.030629         2.648348         0.219903
 H        -4.387940        -0.217472        -0.403632
 H        -3.262090         0.968202        -1.047684
 H        -2.772300        -0.920591         1.208959
