19
Iteration:  3488charge 0 multiplicity 1
 O         0.284329        -0.216467         0.120334
 C        -0.868384         0.413117         0.745526
 C        -1.317061         1.873515         0.698084
 C        -2.315749         1.220349         1.739281
 C        -1.093330         0.507000         2.342474
 O        -3.564131         1.768468         2.014665
 C        -4.313874         1.724739         0.798730
 C        -3.671236         0.496243        -0.127107
 C        -2.593871         0.014210         0.837165
 H         0.520712         0.314826        -0.724900
 H        -0.615812         2.627348         1.136108
 H        -1.941061         2.146178        -0.203284
 H        -0.282087         1.210831         2.819279
 H        -1.367236        -0.373239         2.984431
 H        -5.400366         1.521277         1.004556
 H        -4.384788         2.632497         0.083925
 H        -4.507254        -0.152326        -0.265242
 H        -3.242058         0.924377        -1.133516
 H        -2.878778        -0.884564         1.370689
