19
Iteration:  4140charge 0 multiplicity 1
 O         0.092974        -0.129565         0.044485
 C        -0.917602         0.422552         0.819115
 C        -1.191414         1.956698         0.678986
 C        -2.316671         1.291572         1.622212
 C        -1.054701         0.549378         2.385615
 O        -3.497224         1.938869         1.945463
 C        -4.393388         1.452384         0.853647
 C        -3.664916         0.406694        -0.093521
 C        -2.473517         0.037449         0.813568
 H         0.061874        -1.148851         0.233614
 H        -0.346410         2.573195         1.162512
 H        -1.538634         2.401164        -0.282566
 H        -0.246743         1.210708         2.875575
 H        -1.403973        -0.377803         2.937966
 H        -5.166298         0.907747         1.368233
 H        -4.966663         2.316990         0.371454
 H        -4.429735        -0.378982        -0.214043
 H        -3.271073         0.729078        -1.073132
 H        -2.737675        -0.772079         1.453061
