19
Iteration:  2726
 O         0.151733        -0.317071         0.295089
 C        -0.914810         0.385384         0.736167
 C        -1.098919         1.943259         0.767849
 C        -2.260040         1.305235         1.572799
 C        -1.106825         0.549541         2.296299
 O        -3.497191         1.803994         1.957179
 C        -4.499409         1.303379         1.044980
 C        -3.681847         0.762738        -0.207342
 C        -2.478494         0.218080         0.599124
 H        -0.151869        -0.630463        -0.628318
 H        -0.463013         2.712476         1.401605
 H        -1.470479         2.351323        -0.208748
 H        -0.308443         0.999557         2.792570
 H        -1.528509        -0.332225         2.776872
 H        -5.147867         0.600269         1.603794
 H        -5.268851         2.135516         0.902738
 H        -4.100231        -0.088117        -0.751224
 H        -3.462272         1.509742        -0.975309
 H        -2.741768        -0.860870         0.969110
