19
Iteration:  3918charge 0 multiplicity 1
 O         0.267969        -0.299866         0.239550
 C        -0.811179         0.402627         0.765887
 C        -1.154371         1.917080         0.509595
 C        -2.324935         1.374504         1.584096
 C        -1.089086         0.539883         2.333711
 O        -3.517205         1.861748         1.959630
 C        -4.534445         1.282437         1.032465
 C        -3.807377         0.703216        -0.158241
 C        -2.507098         0.164580         0.694758
 H         0.893700        -0.656314         0.926987
 H        -0.416176         2.570739         0.961915
 H        -1.478220         2.226673        -0.512741
 H        -0.364476         1.086188         2.947887
 H        -1.607056        -0.233379         2.942313
 H        -5.003100         0.503483         1.645534
 H        -5.005497         2.148024         0.653183
 H        -4.456629        -0.140212        -0.583712
 H        -3.668319         1.477530        -0.885039
 H        -2.822918        -0.782862         1.196723
