19
Iteration:  3760
 O         0.266271        -0.084853         0.275962
 C        -0.961051         0.378733         0.759861
 C        -1.205622         1.905561         0.470870
 C        -2.285687         1.229364         1.691697
 C        -1.132831         0.508264         2.380949
 O        -3.552891         1.776321         2.058539
 C        -4.279585         1.709395         0.856230
 C        -3.808067         0.445376        -0.048567
 C        -2.530536        -0.042911         0.718234
 H         0.238755         0.339677        -0.661504
 H        -0.417548         2.589075         0.705791
 H        -1.476559         1.942548        -0.576882
 H        -0.405798         1.203177         2.593260
 H        -1.344815        -0.364660         2.871006
 H        -5.319280         1.490900         1.135050
 H        -4.160156         2.690119         0.332894
 H        -4.587177        -0.283527        -0.125381
 H        -3.525947         0.574798        -1.199616
 H        -2.636006        -1.053717         1.272015
