19
Iteration:  2598
 O         0.194273        -0.256402         0.191009
 C        -0.913652         0.411756         0.752498
 C        -1.338018         1.915172         0.660323
 C        -2.316859         1.197495         1.763519
 C        -1.067471         0.566961         2.260986
 O        -3.607825         1.708636         2.086838
 C        -4.287416         1.669072         0.800345
 C        -3.647653         0.618019        -0.097880
 C        -2.510966        -0.026416         0.681530
 H         0.329694         0.084931        -0.684980
 H        -0.674559         2.595416         1.180545
 H        -1.839184         2.405232        -0.099156
 H        -0.328442         1.238790         2.916198
 H        -1.107464        -0.332056         2.850435
 H        -5.339840         1.624786         0.954616
 H        -3.900749         2.636915         0.396088
 H        -4.344872        -0.135011        -0.312535
 H        -3.234797         1.188835        -0.977310
 H        -2.625414        -0.983012         1.116779
