19
Iteration:  4461charge 0 multiplicity 1
 O         0.134432        -0.263663         0.054779
 C        -0.888855         0.357639         0.721755
 C        -1.402170         1.947991         0.567856
 C        -2.313529         1.302622         1.698098
 C        -1.061340         0.655453         2.366959
 O        -3.552731         1.763782         2.034579
 C        -4.335193         1.529152         0.846385
 C        -3.564494         0.594032        -0.068259
 C        -2.489013         0.032300         0.872300
 H         0.599795        -0.876097         0.579655
 H        -0.706916         2.777796         0.949608
 H        -1.840505         2.162422        -0.441465
 H        -0.281612         1.239391         2.883583
 H        -1.323520        -0.328517         2.851635
 H        -5.358914         1.151338         1.121500
 H        -4.452219         2.547650         0.386706
 H        -4.121066        -0.086637        -0.647097
 H        -3.084323         1.126980        -0.820678
 H        -2.747984        -0.949508         1.279342
