19
Iteration:  1871charge 0 multiplicity 1
 O         0.017391        -0.308925         0.111976
 C        -0.895812         0.493698         0.789772
 C        -1.305379         1.934873         0.726933
 C        -2.274191         1.213363         1.710664
 C        -1.070921         0.512204         2.356126
 O        -3.537331         1.731724         2.054423
 C        -4.322116         1.585054         0.796619
 C        -3.607194         0.594212        -0.140886
 C        -2.416474         0.070046         0.678841
 H         0.809600         0.295824        -0.111555
 H        -0.884496         2.777273         1.248890
 H        -1.777315         2.260139        -0.181943
 H        -0.394498         1.159717         2.802183
 H        -1.228699        -0.478820         2.900061
 H        -5.358470         1.509838         1.190193
 H        -4.530974         2.627420         0.442580
 H        -4.295945        -0.172016        -0.414106
 H        -3.388165         1.111127        -1.119732
 H        -2.591361        -0.910812         1.200318
