19
Iteration:  4517
 O         0.150739        -0.251010         0.141491
 C        -0.867823         0.393071         0.765851
 C        -1.254898         1.976194         0.736740
 C        -2.249946         1.320209         1.553506
 C        -1.155675         0.563261         2.311299
 O        -3.475042         1.913840         1.933964
 C        -4.477239         1.461562         0.979401
 C        -3.667962         0.471588        -0.087440
 C        -2.387200         0.092669         0.722122
 H        -0.087934        -1.140817        -0.222983
 H        -0.667639         2.872305         1.119151
 H        -1.442610         2.233209        -0.336203
 H        -0.470501         1.194640         2.953657
 H        -1.415599        -0.387912         2.869942
 H        -5.289309         1.007741         1.652741
 H        -4.994135         2.336181         0.553416
 H        -4.242371        -0.441544        -0.276224
 H        -3.489644         0.989295        -0.954060
 H        -2.636270        -0.805231         1.285420
