19
Iteration:   545charge 0 multiplicity 1
 O         0.144761        -0.227818         0.098695
 C        -0.824408         0.408952         0.811219
 C        -1.347825         1.958214         0.667176
 C        -2.305428         1.135329         1.677651
 C        -1.153986         0.576217         2.420013
 O        -3.578879         1.587653         2.061525
 C        -4.253887         1.732611         0.781399
 C        -3.662335         0.624055        -0.101547
 C        -2.426640        -0.011849         0.688576
 H         0.620937         0.502004        -0.434373
 H        -0.773921         2.696560         1.226094
 H        -1.828600         2.322718        -0.155982
 H        -0.527877         1.259795         2.954501
 H        -1.393173        -0.315630         2.960731
 H        -5.343509         1.615868         0.912517
 H        -4.103143         2.721778         0.436118
 H        -4.560905         0.006082        -0.245648
 H        -3.376411         1.057836        -1.117198
 H        -2.733849        -0.927156         1.203388
