19
Iteration:  3901
 O         0.264562        -0.222651         0.212783
 C        -0.898242         0.372472         0.731731
 C        -1.131106         1.886693         0.601614
 C        -2.257872         1.309528         1.601097
 C        -1.170747         0.508417         2.274229
 O        -3.569822         2.026312         1.971393
 C        -4.524013         1.361712         1.077622
 C        -3.689476         0.574063        -0.127030
 C        -2.528258         0.093129         0.649405
 H         0.711633        -0.546432         1.076262
 H        -0.349159         2.597151         0.970894
 H        -1.460310         2.238113        -0.403096
 H        -0.356193         1.161154         2.714502
 H        -1.360655        -0.532529         2.556237
 H        -4.928426         0.461505         1.624558
 H        -5.378214         2.096438         0.800523
 H        -4.213777        -0.208191        -0.610781
 H        -3.332702         1.210997        -1.002917
 H        -2.714513        -0.799810         1.252141
