19
Iteration:   384charge 0 multiplicity 1
 O         0.121725        -0.243133         0.183550
 C        -0.925891         0.479014         0.726249
 C        -1.065001         1.955726         0.743861
 C        -2.283816         1.262205         1.580894
 C        -1.232793         0.418387         2.317432
 O        -3.539713         1.778070         1.983815
 C        -4.453624         1.395551         1.024562
 C        -3.633157         0.733402        -0.205221
 C        -2.473840         0.132442         0.613814
 H         0.736788        -0.144204         0.993461
 H        -0.448035         2.502972         1.522441
 H        -1.183767         2.458033        -0.257022
 H        -0.377489         0.905346         2.858116
 H        -1.740323        -0.509372         2.727787
 H        -5.184427         0.708713         1.536179
 H        -5.091948         2.240865         0.693199
 H        -4.081619        -0.018537        -0.769109
 H        -3.264832         1.487027        -0.915228
 H        -2.525356        -0.912735         0.939692
