19
Iteration:   117
 O         0.165072        -0.129829         0.143557
 C        -0.916383         0.358610         0.794496
 C        -1.205983         1.806862         0.778283
 C        -2.417676         1.167239         1.702970
 C        -1.259899         0.347603         2.360057
 O        -3.490489         1.814060         1.985226
 C        -4.429357         1.525614         0.946978
 C        -3.459060         0.809847        -0.253432
 C        -2.488347         0.121217         0.649491
 H         0.905001         0.491502         0.227791
 H        -0.477531         2.442281         1.245885
 H        -1.606297         2.189302        -0.357494
 H        -0.541835         0.890296         2.952088
 H        -1.589606        -0.794172         2.599271
 H        -5.160810         0.762767         1.325413
 H        -4.919620         2.442620         0.668760
 H        -3.958821         0.049842        -0.929845
 H        -3.083473         1.648845        -0.869805
 H        -2.903544        -0.918274         0.967716
