19
Iteration:   320
 O         0.131001        -0.171900         0.133535
 C        -0.960754         0.365696         0.780621
 C        -1.229618         1.906020         0.788689
 C        -2.327055         1.233591         1.684236
 C        -1.203394         0.438680         2.330364
 O        -3.529670         1.900983         2.064458
 C        -4.379735         1.371399         0.856651
 C        -3.469620         0.728530        -0.193566
 C        -2.491362         0.047468         0.734735
 H        -0.033994        -0.124821        -0.805257
 H        -0.496045         2.482861         1.435378
 H        -1.371125         2.403537        -0.218633
 H        -0.401782         1.006707         2.793722
 H        -1.573159        -0.545035         2.709726
 H        -5.188698         0.675705         1.099353
 H        -4.828959         2.303284         0.376042
 H        -3.976126         0.199788        -1.022061
 H        -2.944664         1.618252        -0.618002
 H        -2.731570        -0.983743         0.946519
