19
Iteration:  1769
 O         0.044595        -0.290231         0.159200
 C        -0.900992         0.436605         0.720829
 C        -1.076518         2.003021         0.756370
 C        -2.240792         1.230803         1.620540
 C        -1.088492         0.485017         2.341048
 O        -3.568443         1.871702         1.997345
 C        -4.487248         1.344269         0.975495
 C        -3.634857         0.646563        -0.232055
 C        -2.502765         0.166194         0.671175
 H         0.866541        -0.008968         0.472400
 H        -0.474143         2.697021         1.241551
 H        -1.515911         2.320888        -0.211146
 H        -0.160401         0.908147         2.874392
 H        -1.570514        -0.336536         2.673473
 H        -5.028804         0.537264         1.576306
 H        -4.924369         2.376147         0.715666
 H        -4.226956        -0.215818        -0.531561
 H        -3.431712         1.293209        -1.015037
 H        -2.640415        -0.826232         1.087828
