19
Iteration:  2237charge 0 multiplicity 1
 O         0.164774        -0.190949         0.136903
 C        -0.936161         0.405481         0.735388
 C        -1.265316         1.969222         0.772455
 C        -2.293000         1.283601         1.691180
 C        -1.101078         0.429944         2.315162
 O        -3.608783         1.638191         2.070681
 C        -4.194366         1.793079         0.751532
 C        -3.727137         0.470318        -0.075318
 C        -2.513580         0.058668         0.736567
 H         0.526871         0.182682        -0.630427
 H        -0.497561         2.577323         1.317289
 H        -1.637197         2.535736        -0.140337
 H        -0.441485         1.204745         2.951213
 H        -1.340633        -0.556352         2.672740
 H        -5.287859         1.687410         0.911398
 H        -3.916560         2.714674         0.156196
 H        -4.359318        -0.370096        -0.057850
 H        -3.566936         0.696758        -1.175352
 H        -2.673928        -0.962953         1.192251
