19
Iteration:  2674charge 0 multiplicity 1
 O         0.077557        -0.268838         0.187971
 C        -0.990463         0.381796         0.820376
 C        -1.270215         1.943060         0.751631
 C        -2.293882         1.259577         1.656634
 C        -1.033706         0.450483         2.362165
 O        -3.481483         1.873398         1.964999
 C        -4.351034         1.390327         0.888406
 C        -3.632900         0.680758        -0.182114
 C        -2.486135         0.079495         0.666385
 H         0.292254         0.327193        -0.614750
 H        -0.453510         2.624206         1.167553
 H        -1.606118         2.360139        -0.202010
 H        -0.202442         1.147950         2.850819
 H        -1.127804        -0.419816         2.984020
 H        -5.182009         0.910020         1.340111
 H        -5.002625         2.273193         0.498081
 H        -4.207876         0.015931        -0.765915
 H        -3.234601         1.403390        -0.923161
 H        -2.776078        -0.750519         1.294151
