19
Iteration:  2137charge 0 multiplicity 1
 O         0.161570        -0.362400         0.147155
 C        -0.893977         0.458448         0.764081
 C        -1.237467         1.968529         0.802077
 C        -2.292085         1.344608         1.611414
 C        -1.220755         0.529498         2.355705
 O        -3.483891         1.744416         2.026829
 C        -4.482533         1.486970         0.953692
 C        -3.592662         0.636607        -0.141767
 C        -2.371075         0.129684         0.564657
 H         0.007732        -0.533501        -0.839654
 H        -0.442306         2.518862         1.311772
 H        -1.533511         2.445963        -0.134628
 H        -0.588178         1.087926         3.140995
 H        -1.492913        -0.366511         2.799452
 H        -5.287189         0.798324         1.168974
 H        -4.833981         2.486161         0.550361
 H        -4.276572        -0.035611        -0.426465
 H        -3.317743         1.385095        -0.832817
 H        -2.647598        -0.757719         1.196318
