19
Iteration:   325
 O         0.135102        -0.184195         0.143859
 C        -0.957291         0.386447         0.812422
 C        -1.222900         1.899374         0.792456
 C        -2.328650         1.207268         1.657274
 C        -1.191747         0.427502         2.331859
 O        -3.519954         1.900129         2.028909
 C        -4.390597         1.411927         0.863706
 C        -3.510649         0.742943        -0.179578
 C        -2.477766         0.051700         0.706334
 H        -0.060581         0.084904        -0.795651
 H        -0.449979         2.324423         1.394720
 H        -1.439122         2.445195        -0.120830
 H        -0.513021         1.060201         2.954591
 H        -1.431296        -0.573225         2.711650
 H        -5.063142         0.589234         1.226437
 H        -4.916867         2.222741         0.380386
 H        -4.033114         0.127841        -0.982736
 H        -3.010915         1.578241        -0.670854
 H        -2.632147        -1.040637         0.966795
