19
Iteration:  1715
 O         0.024992        -0.289110         0.142187
 C        -0.960599         0.409737         0.721585
 C        -1.223257         1.905969         0.706643
 C        -2.296490         1.268021         1.721520
 C        -1.141684         0.504358         2.401507
 O        -3.507415         1.941454         2.030451
 C        -4.394704         1.291738         0.928007
 C        -3.532226         0.736256        -0.249450
 C        -2.447572         0.075738         0.665173
 H         0.752616         0.301467         0.027140
 H        -0.481036         2.545948         1.075287
 H        -1.591790         2.260938        -0.289150
 H        -0.351489         1.159950         3.018188
 H        -1.034584        -0.457543         2.817499
 H        -4.922535         0.394639         1.532231
 H        -5.154271         2.141763         0.561608
 H        -4.148253         0.053148        -0.839047
 H        -3.311672         1.559311        -0.867765
 H        -2.748239        -0.901763         1.096918
