19
Iteration:  2939
 O         0.194822        -0.220903         0.030573
 C        -0.834831         0.423982         0.785271
 C        -1.266778         1.963929         0.695628
 C        -2.329621         1.313229         1.764361
 C        -1.089686         0.532327         2.342087
 O        -3.589557         1.739659         2.043517
 C        -4.372114         1.592631         0.788870
 C        -3.631075         0.543677        -0.074124
 C        -2.480284         0.074968         0.750363
 H        -0.058654        -1.183142        -0.201875
 H        -0.617840         2.592176         1.323522
 H        -1.518609         2.384364        -0.329725
 H        -0.412577         1.086286         2.874541
 H        -1.426544        -0.316476         2.898543
 H        -5.408638         1.254267         1.000811
 H        -4.337997         2.619443         0.263023
 H        -4.341211        -0.328657        -0.220013
 H        -3.447646         0.956679        -1.030568
 H        -2.719829        -0.900468         1.242494
