19
Iteration:  4301
 O         0.085787        -0.193029         0.095954
 C        -0.931547         0.430832         0.713884
 C        -1.215446         1.938394         0.674041
 C        -2.297743         1.296455         1.740363
 C        -1.120737         0.634993         2.400433
 O        -3.522078         1.864177         1.997519
 C        -4.366241         1.506680         0.868374
 C        -3.601713         0.453037        -0.080182
 C        -2.411025         0.006954         0.693490
 H        -0.052790        -1.124116        -0.174104
 H        -0.520355         2.575654         1.148139
 H        -1.682874         2.357001        -0.168958
 H        -0.479583         1.356984         2.878825
 H        -1.399870        -0.228991         2.932416
 H        -5.324872         0.985464         1.207853
 H        -4.692369         2.341800         0.336435
 H        -4.276368        -0.482292        -0.419853
 H        -3.403216         1.020773        -1.015108
 H        -2.511828        -0.942877         1.288535
