19
Iteration:  2634charge 0 multiplicity 1
 O         0.109768        -0.236771         0.099626
 C        -0.889326         0.394478         0.814297
 C        -1.210620         1.946453         0.699856
 C        -2.245157         1.294469         1.676354
 C        -1.174087         0.476408         2.400873
 O        -3.538499         1.777187         2.026917
 C        -4.344815         1.575261         0.841719
 C        -3.641314         0.552546        -0.085144
 C        -2.442024         0.063451         0.710350
 H         0.284466         0.465686        -0.489105
 H        -0.551774         2.683084         1.056320
 H        -1.707197         2.208855        -0.252366
 H        -0.415354         1.033265         3.057399
 H        -1.505198        -0.558861         2.598867
 H        -5.453235         1.300996         1.137103
 H        -4.472317         2.501397         0.298463
 H        -4.327612        -0.255812        -0.470156
 H        -3.437860         1.055560        -1.103505
 H        -2.843612        -0.925276         1.085442
