19
Iteration:  3837
 O         0.049960        -0.277397         0.083632
 C        -0.920260         0.414708         0.761921
 C        -1.167065         1.940970         0.684552
 C        -2.256836         1.447717         1.676925
 C        -1.087602         0.659366         2.366625
 O        -3.598744         1.790159         1.999242
 C        -4.370567         1.368991         0.848821
 C        -3.566620         0.522889        -0.110664
 C        -2.461048         0.087361         0.828177
 H        -0.250733        -0.826842        -0.624575
 H        -0.428185         2.667640         0.999618
 H        -1.568994         2.202845        -0.273155
 H        -0.196606         1.109624         2.742285
 H        -1.409544        -0.100691         3.024179
 H        -5.237933         0.817367         1.218852
 H        -4.990746         2.184596         0.516949
 H        -4.067310        -0.244097        -0.694526
 H        -2.964911         1.226966        -0.837788
 H        -2.807366        -0.745148         1.563010
