19
Iteration:  2742
 O         0.127701        -0.313789         0.305259
 C        -0.899125         0.507000         0.783868
 C        -1.196368         1.996443         0.694890
 C        -2.259925         1.269558         1.650605
 C        -1.136420         0.404258         2.290682
 O        -3.481233         1.899738         1.936462
 C        -4.468685         1.309432         1.037880
 C        -3.658932         0.729864        -0.178586
 C        -2.454519         0.133995         0.554085
 H         0.066291        -0.669852        -0.581073
 H        -0.336388         2.427185         1.159901
 H        -1.424375         2.547283        -0.206236
 H        -0.444920         1.095374         2.915343
 H        -1.099879        -0.608202         2.746636
 H        -5.081639         0.448968         1.458252
 H        -5.233771         2.073396         0.709571
 H        -4.391586         0.069543        -0.702755
 H        -3.494570         1.594713        -0.848950
 H        -2.673578        -0.758105         1.119222
