19
Iteration:  3320charge 0 multiplicity 1
 O         0.248160        -0.289817         0.250039
 C        -0.863244         0.432238         0.712074
 C        -1.160725         1.969183         0.697176
 C        -2.239713         1.400901         1.607039
 C        -1.226402         0.457855         2.350545
 O        -3.423767         1.956977         1.955420
 C        -4.521685         1.219145         1.068456
 C        -3.749964         0.683059        -0.194312
 C        -2.499591         0.174354         0.527925
 H         0.050153        -1.214374         0.640376
 H        -0.503573         2.527323         1.279449
 H        -1.575384         2.357407        -0.193070
 H        -0.357075         0.802282         2.924386
 H        -1.870066        -0.459329         2.703540
 H        -4.716759         0.386648         1.802479
 H        -5.180727         1.984027         0.746262
 H        -4.339853         0.040865        -0.881539
 H        -3.452080         1.475651        -0.822866
 H        -2.760845        -0.804651         0.915333
