19
Iteration:  1144
 O         0.096785        -0.271662         0.004414
 C        -0.837566         0.468866         0.778581
 C        -1.272719         1.975164         0.842734
 C        -2.334346         1.217308         1.720640
 C        -1.019881         0.503894         2.369889
 O        -3.630989         1.742010         2.074558
 C        -4.231488         1.622415         0.671676
 C        -3.719236         0.486624        -0.187230
 C        -2.513976         0.090732         0.805993
 H         1.023808         0.141151         0.008166
 H        -0.700880         2.734103         1.404548
 H        -1.783019         2.451359        -0.131281
 H        -0.356038         1.121052         2.893156
 H        -1.186321        -0.476989         2.996565
 H        -5.257957         1.476577         0.986777
 H        -4.145124         2.652679         0.318383
 H        -4.378659        -0.333749        -0.327603
 H        -3.384706         0.910161        -1.258127
 H        -2.802614        -0.793280         1.450556
