19
Iteration:  2369charge 0 multiplicity 1
 O         0.166319        -0.287159         0.150953
 C        -0.930156         0.360670         0.731451
 C        -1.127528         1.941630         0.708198
 C        -2.269477         1.298587         1.644179
 C        -1.184191         0.458913         2.363865
 O        -3.541495         1.908041         2.009992
 C        -4.463416         1.323101         0.930365
 C        -3.623708         0.737058        -0.130384
 C        -2.465648         0.099853         0.635607
 H         0.156030        -0.044433        -0.755807
 H        -0.405756         2.385196         1.404352
 H        -1.362412         2.483631        -0.188829
 H        -0.379602         0.951833         3.037315
 H        -1.594840        -0.132765         3.059578
 H        -5.173618         0.626117         1.468595
 H        -5.048170         2.180557         0.468016
 H        -4.268413         0.070636        -0.591599
 H        -3.089821         1.482791        -0.736562
 H        -2.721613        -0.779893         1.292937
