19
Iteration:  4749
 O         0.018041        -0.264523         0.045408
 C        -0.995280         0.385199         0.705395
 C        -1.331877         1.925573         0.605603
 C        -2.284577         1.318237         1.714545
 C        -0.979970         0.646355         2.373808
 O        -3.616395         1.756406         2.058708
 C        -4.288247         1.652652         0.768138
 C        -3.565643         0.452504        -0.048414
 C        -2.450512         0.002371         0.856414
 H         0.921796        -0.025568         0.470871
 H        -0.510436         2.493919         1.040706
 H        -1.737880         2.377968        -0.356327
 H        -0.258048         1.464647         2.632368
 H        -1.025389        -0.347491         2.867901
 H        -5.267384         1.300900         1.081182
 H        -4.410621         2.528879         0.287495
 H        -4.232124        -0.515324        -0.371815
 H        -3.124487         0.927200        -0.900639
 H        -2.703174        -0.877061         1.509561
