19
Iteration:   433charge 0 multiplicity 1
 O         0.078407        -0.213610         0.142105
 C        -0.959392         0.458210         0.756997
 C        -1.174650         1.967942         0.724161
 C        -2.321537         1.213359         1.748189
 C        -1.108242         0.509261         2.368440
 O        -3.572131         1.812478         2.027524
 C        -4.437908         1.355542         0.847029
 C        -3.480900         0.735828        -0.174246
 C        -2.454311         0.090592         0.674773
 H        -0.236303        -1.053255        -0.150335
 H        -0.364057         2.480812         1.256484
 H        -1.364378         2.454951        -0.208722
 H        -0.384026         1.137739         2.898214
 H        -1.259420        -0.504661         2.706640
 H        -5.254882         0.702891         1.195476
 H        -4.912869         2.265124         0.433001
 H        -4.066825         0.102357        -0.947953
 H        -3.012034         1.562322        -0.719166
 H        -2.667189        -0.896917         1.116971
