19
Iteration:  1927
 O         0.084189        -0.204659         0.050085
 C        -0.935225         0.452148         0.797821
 C        -1.314111         1.963302         0.702875
 C        -2.280287         1.201731         1.746825
 C        -1.074350         0.494072         2.383830
 O        -3.568893         1.761278         2.043737
 C        -4.267253         1.705903         0.824884
 C        -3.656394         0.481290        -0.170135
 C        -2.419692        -0.025884         0.685473
 H         0.926038         0.221528         0.094180
 H        -0.628690         2.661702         1.170507
 H        -1.976714         2.186895        -0.080695
 H        -0.532037         1.038741         3.053145
 H        -1.388802        -0.505811         2.939193
 H        -5.339105         1.614454         1.172078
 H        -3.973701         2.686935         0.264521
 H        -4.491010        -0.232998        -0.146553
 H        -3.395330         0.962402        -1.146977
 H        -2.742224        -1.018671         1.151946
