19
Iteration:  4287
 O         0.206591        -0.161383         0.037213
 C        -0.911342         0.387854         0.816460
 C        -1.310046         1.885050         0.674415
 C        -2.301182         1.322497         1.618532
 C        -1.123608         0.538350         2.355184
 O        -3.558635         1.982306         2.013008
 C        -4.470933         1.498463         0.951909
 C        -3.553907         0.454364        -0.162887
 C        -2.420543         0.020641         0.770573
 H         0.060205        -1.089967         0.207904
 H        -0.509762         2.580251         1.122010
 H        -1.523967         2.225570        -0.406095
 H        -0.234070         1.008838         2.847585
 H        -1.410879        -0.421101         2.972957
 H        -5.322147         1.017458         1.495804
 H        -4.866963         2.377082         0.418482
 H        -4.236644        -0.418144        -0.389859
 H        -3.202848         0.986014        -0.987023
 H        -2.681367        -0.875983         1.254743
