19
Iteration:  3114
 O        -0.008684        -0.285721         0.053193
 C        -0.916286         0.429815         0.772044
 C        -1.207032         1.937422         0.671122
 C        -2.265842         1.341610         1.676035
 C        -1.148205         0.573621         2.404798
 O        -3.551807         1.796555         1.988811
 C        -4.386509         1.382679         0.986679
 C        -3.513610         0.625110        -0.200600
 C        -2.389615         0.159693         0.710818
 H         0.217582        -1.044532         0.647780
 H        -0.585477         2.672212         1.233765
 H        -1.568803         2.344896        -0.330154
 H        -0.489214         1.230647         2.917544
 H        -1.413305        -0.336594         3.004461
 H        -5.327670         0.807680         1.326126
 H        -4.746922         2.274078         0.349614
 H        -3.985149        -0.243202        -0.695961
 H        -3.173454         1.359029        -0.917588
 H        -2.698621        -0.836040         1.170569
