19
Iteration:  4790charge 0 multiplicity 1
 O         0.161817        -0.216524         0.162533
 C        -0.969203         0.407681         0.770283
 C        -1.316229         1.898997         0.551345
 C        -2.283698         1.239085         1.684748
 C        -1.173836         0.634471         2.323062
 O        -3.451275         1.801169         1.968148
 C        -4.296682         1.639789         0.924373
 C        -3.717728         0.432751        -0.048717
 C        -2.429408        -0.030603         0.757116
 H         0.688826         0.497001        -0.200382
 H        -0.576481         2.510141         0.993467
 H        -1.769148         2.228961        -0.387316
 H        -0.369694         1.173175         2.784820
 H        -1.404613        -0.219154         2.901395
 H        -5.313455         1.453036         1.348609
 H        -4.383071         2.671693         0.380395
 H        -4.495150        -0.331692        -0.139328
 H        -3.521008         0.702958        -1.141645
 H        -2.643411        -0.915342         1.457839
