19
Iteration:  3345
 O         0.132105        -0.248373         0.189661
 C        -0.865738         0.417727         0.767430
 C        -1.072036         1.918923         0.752050
 C        -2.310265         1.295737         1.618487
 C        -1.191859         0.485431         2.275238
 O        -3.493466         1.894605         1.888609
 C        -4.492088         1.303962         1.019855
 C        -3.735615         0.706597        -0.143828
 C        -2.449985         0.199455         0.606809
 H         0.404893        -0.998763         0.840458
 H        -0.282416         2.388962         1.468323
 H        -1.371079         2.374060        -0.193922
 H        -0.426601         1.159672         2.772792
 H        -1.409103        -0.528082         2.732793
 H        -4.657531         0.446051         1.712537
 H        -5.287958         2.035555         0.742767
 H        -4.249867        -0.053860        -0.643709
 H        -3.453261         1.480595        -0.938227
 H        -2.737520        -0.770070         1.124475
