19
Iteration:  3872charge 0 multiplicity 1
 O         0.098591        -0.188524         0.089721
 C        -0.863279         0.472311         0.791496
 C        -1.202686         1.924637         0.685043
 C        -2.233717         1.252687         1.666620
 C        -1.139120         0.565317         2.447255
 O        -3.451536         1.934161         1.825145
 C        -4.440038         1.351950         0.986561
 C        -3.704270         0.568709        -0.146619
 C        -2.495300         0.071747         0.738386
 H         0.086441        -1.051748         0.483674
 H        -0.613681         2.756949         1.050238
 H        -1.658136         2.107187        -0.247560
 H        -0.426251         1.175343         2.921449
 H        -1.401538        -0.402683         2.851297
 H        -4.821950         0.491938         1.549112
 H        -5.011346         2.172746         0.650638
 H        -4.381038        -0.179015        -0.708890
 H        -3.234150         1.223405        -0.925678
 H        -2.609193        -0.902306         1.338265
