19
Iteration:  1158charge 0 multiplicity 1
 O         0.038490        -0.218714         0.044326
 C        -0.934270         0.422861         0.840115
 C        -1.332649         2.004786         0.818688
 C        -2.277447         1.275768         1.733831
 C        -1.061294         0.460530         2.368676
 O        -3.557661         1.696640         1.990433
 C        -4.311156         1.675902         0.780074
 C        -3.658405         0.459076        -0.110051
 C        -2.392775         0.085754         0.687010
 H         0.882165         0.104738         0.292770
 H        -0.567960         2.670673         1.229740
 H        -1.595279         2.355364        -0.173189
 H        -0.276444         1.150477         2.825287
 H        -1.377761        -0.526641         2.740683
 H        -5.436471         1.768465         0.850752
 H        -4.040963         2.461796         0.089661
 H        -4.354164        -0.421918        -0.207330
 H        -3.461083         0.863576        -1.112556
 H        -2.520044        -0.898196         1.124165
