19
Iteration:  2786charge 0 multiplicity 1
 O         0.101573        -0.226521         0.144321
 C        -0.959083         0.390383         0.811940
 C        -1.072732         1.872458         0.685528
 C        -2.280034         1.246848         1.677187
 C        -1.125441         0.518391         2.383836
 O        -3.528594         1.853785         1.977581
 C        -4.415257         1.390581         0.923154
 C        -3.662469         0.696926        -0.166228
 C        -2.515555         0.089628         0.690387
 H         0.446661         0.343440        -0.545398
 H        -0.343801         2.623695         1.065301
 H        -1.479926         2.268883        -0.261529
 H        -0.363234         1.059021         3.024541
 H        -1.408496        -0.399249         3.025471
 H        -5.178782         0.662354         1.376052
 H        -4.891999         2.301013         0.457987
 H        -4.241706        -0.075680        -0.760524
 H        -3.254902         1.444193        -0.853480
 H        -2.748880        -0.931334         1.089312
