19
Iteration:  3006charge 0 multiplicity 1
 O         0.163940        -0.216585         0.089332
 C        -0.879987         0.446091         0.823712
 C        -1.171473         1.924352         0.633696
 C        -2.317067         1.203233         1.692012
 C        -1.031970         0.491231         2.386698
 O        -3.567798         1.884963         1.923761
 C        -4.488611         1.432023         0.958681
 C        -3.631793         0.691204        -0.123683
 C        -2.512931         0.103348         0.722451
 H         0.332196        -0.964117         0.623953
 H        -0.387134         2.522633         1.080270
 H        -1.565776         2.134078        -0.388236
 H        -0.256734         0.900216         2.922043
 H        -1.359100        -0.501053         2.741386
 H        -5.352697         0.831449         1.477496
 H        -4.988322         2.284076         0.389123
 H        -4.250503        -0.073670        -0.730003
 H        -3.226442         1.412572        -0.884958
 H        -2.739381        -0.930437         1.068046
