19
Iteration:   884charge 0 multiplicity 1
 O        -0.018170        -0.254064        -0.012734
 C        -0.916185         0.447379         0.797589
 C        -1.235112         1.970705         0.831058
 C        -2.304831         1.240037         1.689240
 C        -1.090652         0.522112         2.434004
 O        -3.636319         1.739095         2.129829
 C        -4.255699         1.588910         0.784711
 C        -3.578848         0.480038        -0.194602
 C        -2.401753         0.113528         0.624401
 H         0.784272         0.206557         0.111520
 H        -0.619868         2.577060         1.404519
 H        -1.557547         2.500797        -0.106023
 H        -0.358470         1.176476         2.846537
 H        -1.369313        -0.474250         2.920874
 H        -5.322913         1.414775         1.026892
 H        -4.247892         2.510589         0.177075
 H        -4.107772        -0.371550        -0.173216
 H        -3.467279         0.922658        -1.194704
 H        -2.536723        -0.785804         1.150091
