19
Iteration:  1712charge 0 multiplicity 1
 O         0.021820        -0.295312         0.140433
 C        -0.959350         0.412036         0.702497
 C        -1.234108         1.875568         0.712077
 C        -2.296975         1.252244         1.708055
 C        -1.117865         0.519387         2.401892
 O        -3.519034         1.956262         2.033870
 C        -4.384236         1.296864         0.932102
 C        -3.525678         0.751206        -0.234914
 C        -2.453594         0.083289         0.671614
 H         0.728790         0.450992         0.106600
 H        -0.493905         2.604979         1.136382
 H        -1.575807         2.245249        -0.225195
 H        -0.365771         1.054521         3.015161
 H        -0.994251        -0.492033         2.818831
 H        -5.003223         0.403189         1.421666
 H        -5.138624         2.032155         0.517407
 H        -4.116048        -0.045224        -0.782406
 H        -3.313541         1.538754        -0.975158
 H        -2.778739        -0.856733         1.092993
