19
Iteration:  1237charge 0 multiplicity 1
 O         0.051942        -0.284410         0.108687
 C        -0.947170         0.469352         0.723991
 C        -1.254182         1.996851         0.648882
 C        -2.334752         1.163808         1.753890
 C        -1.164780         0.549172         2.371855
 O        -3.538057         1.745585         2.155426
 C        -4.328690         1.522431         0.839245
 C        -3.523370         0.580578        -0.225510
 C        -2.463004         0.095346         0.693808
 H         0.864626         0.156097        -0.076502
 H        -0.620388         2.761867         1.125558
 H        -1.782473         2.415809        -0.155591
 H        -0.272015         1.129603         2.979819
 H        -1.378308        -0.353990         2.948455
 H        -5.359928         1.166237         1.101704
 H        -4.219024         2.447365         0.236810
 H        -4.194137        -0.201644        -0.694269
 H        -3.027709         1.164885        -0.944223
 H        -2.711941        -0.806934         1.217562
