19
Iteration:   950
 O         0.115827        -0.230938         0.177494
 C        -0.896626         0.412801         0.730162
 C        -1.124250         1.908641         0.662238
 C        -2.258444         1.226106         1.615188
 C        -1.147190         0.485851         2.451379
 O        -3.482527         1.773469         1.980160
 C        -4.458457         1.410181         0.968624
 C        -3.713259         0.727617        -0.177203
 C        -2.493557         0.128601         0.611489
 H         1.031331         0.124139         0.418057
 H        -0.580736         2.606671         1.199075
 H        -1.482399         2.379967        -0.301299
 H        -0.484511         1.203708         2.980281
 H        -1.436012        -0.504743         2.962975
 H        -5.242108         0.678798         1.288762
 H        -4.983407         2.320917         0.662266
 H        -4.262592        -0.037526        -0.605093
 H        -3.416589         1.515747        -0.893003
 H        -2.836140        -0.773400         1.053252
