19
Iteration:   711
 O         0.122075        -0.205504         0.037891
 C        -0.918450         0.312174         0.778800
 C        -1.166967         1.896034         0.696212
 C        -2.245480         1.352578         1.652635
 C        -1.211423         0.433448         2.416745
 O        -3.557461         1.919384         1.943129
 C        -4.462602         1.251338         0.957667
 C        -3.531927         0.790619        -0.137319
 C        -2.478926         0.138423         0.721934
 H         1.014256        -0.024071         0.503873
 H        -0.337053         2.490394         1.083047
 H        -1.545859         2.400720        -0.307302
 H        -0.490102         0.798580         3.075505
 H        -1.793014        -0.363230         2.936203
 H        -4.813784         0.425862         1.574989
 H        -5.247368         1.918154         0.623977
 H        -4.115583        -0.029408        -0.608093
 H        -3.305418         1.511311        -1.048175
 H        -2.874678        -0.842219         1.056341
