19
Iteration:  1887charge 0 multiplicity 1
 O         0.083914        -0.198617         0.086386
 C        -0.973271         0.360244         0.783276
 C        -1.330684         1.915293         0.682219
 C        -2.307913         1.227064         1.701314
 C        -1.033111         0.515298         2.413929
 O        -3.558744         1.719534         2.079295
 C        -4.307482         1.681581         0.853144
 C        -3.617797         0.565933        -0.176559
 C        -2.504432         0.030470         0.723779
 H         0.829288         0.494350         0.084752
 H        -0.310518         2.515113         0.907990
 H        -1.558488         2.390233        -0.336041
 H        -0.172243         1.169479         2.930625
 H        -1.256106        -0.388053         2.932871
 H        -5.309593         1.334673         1.021403
 H        -4.137386         2.560311         0.268694
 H        -4.217514        -0.320399        -0.632665
 H        -3.285393         1.083882        -1.108139
 H        -2.762521        -0.935576         1.147692
