19
Iteration:  4051charge 0 multiplicity 1
 O         0.160236        -0.155195         0.122406
 C        -0.911396         0.456240         0.753053
 C        -1.281308         1.887921         0.556963
 C        -2.389912         1.195539         1.726418
 C        -0.955395         0.680259         2.287514
 O        -3.618590         1.710449         2.067311
 C        -4.306751         1.680187         0.766518
 C        -3.667960         0.402660        -0.071429
 C        -2.502022         0.095047         0.835179
 H         0.423111        -1.063037         0.516643
 H        -0.505875         2.589998         1.005730
 H        -1.750298         2.100206        -0.440382
 H        -0.085511         1.226813         2.804174
 H        -1.042543        -0.300126         2.834005
 H        -5.465977         1.531416         1.008851
 H        -4.252759         2.704984         0.315676
 H        -4.390307        -0.451234         0.075963
 H        -3.457977         0.726615        -1.077563
 H        -2.628155        -0.921774         1.304518
