19
Iteration:  3597charge 0 multiplicity 1
 O         0.158519        -0.231376         0.121354
 C        -0.895894         0.382442         0.805107
 C        -1.163197         1.867860         0.723944
 C        -2.261313         1.322137         1.543819
 C        -1.256598         0.551509         2.389971
 O        -3.446673         1.959763         1.934922
 C        -4.468536         1.306405         1.062436
 C        -3.685622         0.662723        -0.180956
 C        -2.422197         0.117944         0.605180
 H         0.307624        -0.958441         0.680889
 H        -0.481235         2.561170         1.228513
 H        -1.509523         2.179650        -0.303940
 H        -0.480782         1.241831         2.946915
 H        -1.681915        -0.363075         2.908832
 H        -4.732511         0.400342         1.675247
 H        -5.295757         2.074428         0.874005
 H        -4.332186        -0.016618        -0.711028
 H        -3.520437         1.378234        -1.073730
 H        -2.479516        -0.875543         1.104641
