19
Iteration:  3312charge 0 multiplicity 1
 O         0.248052        -0.272466         0.241486
 C        -0.850009         0.421865         0.760457
 C        -1.175999         1.920729         0.651916
 C        -2.245573         1.326070         1.633581
 C        -1.283843         0.456129         2.290400
 O        -3.460577         1.953197         1.961412
 C        -4.469969         1.267724         1.022399
 C        -3.763120         0.712960        -0.170381
 C        -2.415602         0.197286         0.591573
 H         0.003404        -1.209968         0.465925
 H        -0.397042         2.718844         1.020063
 H        -1.527915         2.335293        -0.297563
 H        -0.507432         0.839333         2.997163
 H        -1.611256        -0.519163         2.757992
 H        -4.784496         0.416325         1.771986
 H        -5.425512         1.818001         0.912780
 H        -4.244632         0.021579        -0.805223
 H        -3.502867         1.609987        -0.825185
 H        -2.804135        -0.745012         1.025481
