19
Iteration:  1721
 O         0.039972        -0.296881         0.130883
 C        -0.964602         0.424754         0.799240
 C        -1.219325         1.955965         0.677275
 C        -2.290532         1.293656         1.731596
 C        -1.156738         0.504756         2.396245
 O        -3.483046         1.888379         2.000161
 C        -4.434777         1.299529         0.936168
 C        -3.557496         0.700564        -0.239424
 C        -2.443573         0.080614         0.652097
 H         0.933401         0.092235        -0.146789
 H        -0.320257         2.555950         1.089695
 H        -1.603719         2.315744        -0.253574
 H        -0.516008         1.212275         2.790258
 H        -1.372928        -0.515698         2.907560
 H        -4.778590         0.545803         1.589029
 H        -5.056896         2.111445         0.794797
 H        -4.217589         0.160267        -0.970216
 H        -3.153365         1.638761        -0.756624
 H        -2.689687        -0.903625         1.055395
