19
Iteration:   573charge 0 multiplicity 1
 O         0.011111        -0.188896         0.115597
 C        -0.955146         0.449240         0.734213
 C        -1.230887         2.014365         0.763397
 C        -2.280161         1.234712         1.824240
 C        -1.061609         0.398930         2.344475
 O        -3.638272         1.766748         2.062362
 C        -4.319941         1.622930         0.781278
 C        -3.556614         0.416283        -0.199655
 C        -2.426828         0.067796         0.705080
 H         0.511365         0.536944        -0.261433
 H        -0.429271         2.614838         1.352129
 H        -1.685264         2.772928        -0.039232
 H        -0.130021         0.967247         2.750547
 H        -1.300141        -0.633347         2.657187
 H        -5.427828         1.623845         0.913499
 H        -3.899433         2.518369         0.203447
 H        -4.305564        -0.401677        -0.418622
 H        -3.344149         0.931048        -1.104564
 H        -2.653757        -0.838125         1.303847
