19
Iteration:  3718
 O         0.131754        -0.256502         0.179699
 C        -0.918662         0.453595         0.782704
 C        -1.350458         2.048989         0.637870
 C        -2.345444         1.242158         1.697811
 C        -0.945977         0.542309         2.335581
 O        -3.585008         1.748224         2.028005
 C        -4.279565         1.672658         0.738968
 C        -3.626715         0.430520        -0.067977
 C        -2.512518        -0.019756         0.815791
 H         0.046561        -0.076018        -0.799662
 H        -0.641681         2.623347         1.204244
 H        -1.825897         2.575579        -0.168076
 H        -0.181219         1.201396         2.808105
 H        -1.082167        -0.461502         2.912183
 H        -5.378004         1.633878         0.909669
 H        -4.178001         2.592543         0.157163
 H        -4.379824        -0.359710        -0.193706
 H        -3.386447         0.741535        -1.151553
 H        -2.652484        -0.992433         1.352607
