19
Iteration:  2041
 O         0.106295        -0.313219         0.150662
 C        -0.880317         0.438450         0.784840
 C        -1.156031         1.920925         0.787932
 C        -2.293280         1.358209         1.699409
 C        -1.129530         0.427423         2.349483
 O        -3.554164         1.806320         1.977344
 C        -4.419874         1.415271         0.928973
 C        -3.683929         0.632979        -0.192498
 C        -2.458066         0.226810         0.588221
 H         0.776852         0.262335        -0.290451
 H        -0.254486         2.535713         1.167219
 H        -1.377953         2.167403        -0.323335
 H        -0.273038         0.851216         2.999660
 H        -1.420933        -0.412728         2.854678
 H        -5.054563         0.767827         1.532190
 H        -5.034726         2.179790         0.457227
 H        -4.401641        -0.288283        -0.423423
 H        -3.440725         1.406856        -0.939821
 H        -2.766686        -0.604384         1.195244
