19
Iteration:  3485charge 0 multiplicity 1
 O         0.301238        -0.210378         0.128860
 C        -0.889685         0.392547         0.755992
 C        -1.335299         1.893601         0.699397
 C        -2.301568         1.203782         1.723044
 C        -1.075084         0.504961         2.347842
 O        -3.562131         1.768124         2.019532
 C        -4.312303         1.734237         0.763940
 C        -3.672883         0.527840        -0.107647
 C        -2.615604         0.009705         0.828007
 H         0.358550         0.324684        -0.716131
 H        -0.650035         2.599732         1.137324
 H        -1.915106         2.169983        -0.109981
 H        -0.285436         1.231956         2.746516
 H        -1.279290        -0.382271         3.005110
 H        -5.375215         1.480404         1.028934
 H        -4.308317         2.642033         0.097767
 H        -4.465227        -0.220442        -0.208588
 H        -3.299114         0.806041        -1.175150
 H        -2.835048        -0.984660         1.334598
