19
Iteration:  1374charge 0 multiplicity 1
 O        -0.000278        -0.325677         0.171763
 C        -0.932565         0.474491         0.789341
 C        -1.180781         1.961280         0.678670
 C        -2.238935         1.313687         1.696997
 C        -1.104558         0.455792         2.366266
 O        -3.570606         1.850855         2.038598
 C        -4.473507         1.352439         0.925449
 C        -3.580140         0.684304        -0.206317
 C        -2.362446         0.114472         0.603973
 H         0.868849         0.173070         0.042285
 H        -0.352402         2.683027         1.019307
 H        -1.591651         2.331959        -0.238656
 H        -0.358918         1.061279         2.848623
 H        -1.480645        -0.448933         2.983118
 H        -5.125752         0.682392         1.427618
 H        -4.936429         2.220168         0.503403
 H        -4.148515        -0.118437        -0.694302
 H        -3.304617         1.473080        -0.892675
 H        -2.629829        -0.943134         1.019271
