19
Iteration:   244
 O         0.253001        -0.104550         0.132378
 C        -0.963739         0.413232         0.800914
 C        -1.299942         1.915228         0.760202
 C        -2.280342         1.189798         1.692275
 C        -1.180974         0.343861         2.280248
 O        -3.575419         1.604641         2.097565
 C        -4.242031         1.698772         0.768163
 C        -3.679863         0.715450        -0.165141
 C        -2.497260         0.110248         0.650111
 H         0.697015        -0.461311         0.990520
 H        -0.666461         2.686199         1.257586
 H        -1.632173         2.254537        -0.202341
 H        -0.368467         0.817250         2.889857
 H        -1.527822        -0.615772         2.744988
 H        -5.300713         1.500081         0.957563
 H        -4.225335         2.736524         0.266155
 H        -4.400612        -0.121810        -0.372276
 H        -3.450568         1.129115        -1.191901
 H        -2.896897        -0.771085         1.172613
