19
Iteration:  3062
 O         0.196389        -0.213012         0.176289
 C        -0.887400         0.382271         0.802380
 C        -1.154357         1.910459         0.711388
 C        -2.276303         1.285839         1.646237
 C        -1.211432         0.504120         2.355611
 O        -3.465553         1.949405         1.854035
 C        -4.518258         1.298507         1.055103
 C        -3.740426         0.724718        -0.072469
 C        -2.388625         0.136155         0.590302
 H        -0.128446        -1.153572        -0.031670
 H        -0.300276         2.587398         1.009611
 H        -1.389352         2.250811        -0.297984
 H        -0.474905         0.982571         2.919255
 H        -1.502688        -0.442767         2.813776
 H        -4.851603         0.466606         1.572181
 H        -5.249476         1.939117         0.525559
 H        -4.345417        -0.071556        -0.577094
 H        -3.323602         1.390874        -0.916761
 H        -2.662531        -0.824564         1.068500
