19
Iteration:  4442charge 0 multiplicity 1
 O         0.072936        -0.220485         0.075784
 C        -0.970290         0.488857         0.754551
 C        -1.295218         1.912042         0.650133
 C        -2.298610         1.226645         1.711971
 C        -1.036612         0.619013         2.371818
 O        -3.520343         1.821177         2.083365
 C        -4.333549         1.591038         0.792772
 C        -3.613060         0.451131        -0.145392
 C        -2.440954         0.015789         0.716538
 H         0.427895        -0.735800         0.814522
 H        -0.452094         2.551457         1.044971
 H        -1.838146         2.335237        -0.219476
 H        -0.313841         1.444419         2.686017
 H        -1.090754        -0.322399         3.015863
 H        -5.375069         1.201441         1.140584
 H        -4.533512         2.617409         0.410365
 H        -4.374948        -0.414537        -0.192280
 H        -3.439997         0.751476        -1.115129
 H        -2.654806        -0.893874         1.269155
