19
Iteration:  3631
 O         0.251179        -0.174654         0.252849
 C        -0.931037         0.412142         0.759395
 C        -1.151878         1.846037         0.700557
 C        -2.259919         1.382057         1.614122
 C        -1.067832         0.430715         2.263687
 O        -3.462404         1.930612         1.947181
 C        -4.547977         1.398569         0.909565
 C        -3.737081         0.573532        -0.179157
 C        -2.520739         0.133200         0.756816
 H        -0.014815        -1.020611        -0.125351
 H        -0.466170         2.604226         1.105008
 H        -1.676900         2.215410        -0.234790
 H        -0.215884         0.975978         2.817408
 H        -1.374706        -0.467147         2.909045
 H        -5.169404         0.713318         1.568257
 H        -5.286642         2.209253         0.658628
 H        -4.451389        -0.120556        -0.578972
 H        -3.301148         1.328115        -0.833456
 H        -2.718318        -0.839334         1.246466
