19
Iteration:  3546charge 0 multiplicity 1
 O         0.061777        -0.436134         0.072159
 C        -0.877630         0.430220         0.800311
 C        -1.216181         2.034365         0.684005
 C        -2.308100         1.303186         1.676467
 C        -1.044292         0.599645         2.340619
 O        -3.538598         1.875607         2.025418
 C        -4.536131         1.318884         0.871529
 C        -3.528382         0.654710        -0.146867
 C        -2.457275         0.123822         0.725046
 H         0.807649        -0.635673         0.634737
 H        -0.638977         2.832547         1.204003
 H        -1.548209         2.570905        -0.260847
 H        -0.429361         1.250106         2.890682
 H        -1.248548        -0.326195         2.882954
 H        -5.278078         0.725336         1.417305
 H        -4.894328         2.193541         0.330353
 H        -4.175219        -0.019824        -0.802169
 H        -3.297544         1.433526        -0.780080
 H        -2.717669        -0.840676         1.138649
