19
Iteration:  4379
 O         0.160616        -0.046500         0.144398
 C        -0.894731         0.413804         0.846955
 C        -1.394575         1.839875         0.644763
 C        -2.281777         1.241356         1.632190
 C        -1.077221         0.585070         2.361810
 O        -3.507511         1.778527         2.031071
 C        -4.258389         1.661106         0.804257
 C        -3.709269         0.447328        -0.064073
 C        -2.483635        -0.058204         0.730628
 H        -0.056990        -0.887586        -0.350844
 H        -0.715742         2.573535         0.897196
 H        -1.696512         2.076586        -0.321194
 H        -0.254592         1.236264         2.618575
 H        -1.176902        -0.120010         3.101599
 H        -5.335783         1.568630         0.923144
 H        -4.051139         2.532108         0.239820
 H        -4.492515        -0.402146        -0.036015
 H        -3.457656         0.947634        -1.095584
 H        -2.676597        -0.999357         1.377910
