19
Iteration:   987charge 0 multiplicity 1
 O         0.023239        -0.357213         0.140797
 C        -0.971350         0.389706         0.726344
 C        -1.187334         1.983302         0.770442
 C        -2.242728         1.328664         1.719515
 C        -1.107302         0.451016         2.355262
 O        -3.582077         1.944169         1.971062
 C        -4.455756         1.222126         0.960562
 C        -3.554358         0.739121        -0.222588
 C        -2.386105         0.192794         0.599266
 H         0.939891         0.057673         0.263360
 H        -0.402042         2.558352         1.451381
 H        -1.430508         2.448786        -0.162512
 H        -0.321510         1.056166         2.877593
 H        -1.283803        -0.353186         2.961820
 H        -4.962781         0.466829         1.573820
 H        -5.137894         2.019059         0.619786
 H        -4.293355        -0.064635        -0.673083
 H        -3.417989         1.361821        -1.083104
 H        -2.559815        -0.824376         1.103981
