19
Iteration:   253
 O         0.219769        -0.159063         0.160656
 C        -0.918743         0.407909         0.695818
 C        -1.290378         1.958867         0.805122
 C        -2.326638         1.263049         1.701710
 C        -1.206659         0.413782         2.294454
 O        -3.551397         1.585203         2.080916
 C        -4.277571         1.673942         0.824195
 C        -3.653106         0.669692        -0.217588
 C        -2.487691         0.097661         0.630144
 H         0.750475        -0.756475         0.808400
 H        -0.509798         2.616201         1.428305
 H        -1.631696         2.478112        -0.038370
 H        -0.446435         0.918798         2.963689
 H        -1.641215        -0.499525         2.636059
 H        -5.324717         1.475705         1.088329
 H        -4.142786         2.742950         0.514947
 H        -4.387917        -0.065616        -0.333934
 H        -3.381830         1.087173        -1.180704
 H        -2.711715        -0.841249         1.072003
