19
Iteration:  2951
 O         0.077066        -0.192654         0.064712
 C        -0.907904         0.463096         0.786102
 C        -1.201671         1.919324         0.697774
 C        -2.255686         1.226385         1.622245
 C        -1.098531         0.565931         2.405965
 O        -3.578900         1.713301         2.096862
 C        -4.419014         1.569873         0.779160
 C        -3.607145         0.557666        -0.116570
 C        -2.393392         0.128615         0.759721
 H        -0.224335        -1.100123         0.111549
 H        -0.444279         2.630340         0.982952
 H        -1.691865         2.245262        -0.283477
 H        -0.401666         1.089019         2.933652
 H        -1.323106        -0.449523         2.791263
 H        -5.479542         1.404485         1.222299
 H        -4.495493         2.580306         0.251447
 H        -4.170320        -0.366884        -0.509026
 H        -3.195719         1.063980        -0.982143
 H        -2.605585        -0.797321         1.320387
