19
Iteration:   387charge 0 multiplicity 1
 O         0.119465        -0.241286         0.179297
 C        -0.937665         0.467970         0.739420
 C        -1.079362         1.949891         0.738186
 C        -2.298368         1.267068         1.601703
 C        -1.202816         0.426577         2.344164
 O        -3.512780         1.765908         1.988387
 C        -4.450917         1.374634         0.993658
 C        -3.641469         0.742539        -0.202164
 C        -2.464632         0.146017         0.601256
 H         0.687476        -0.225150         0.998897
 H        -0.474177         2.499049         1.451287
 H        -1.251254         2.503801        -0.303990
 H        -0.420844         0.964972         2.856170
 H        -1.767074        -0.484959         2.761599
 H        -5.145234         0.754893         1.590206
 H        -5.113028         2.285620         0.655769
 H        -4.115014        -0.039529        -0.899473
 H        -3.242989         1.567812        -0.861592
 H        -2.625830        -0.920444         0.901236
