19
Iteration:  4396charge 0 multiplicity 1
 O         0.255630        -0.078904         0.082471
 C        -0.959234         0.398601         0.714483
 C        -1.238120         1.868461         0.578456
 C        -2.293986         1.211707         1.726013
 C        -1.142611         0.599760         2.415274
 O        -3.574113         1.801500         2.063567
 C        -4.291230         1.663784         0.780819
 C        -3.719058         0.417646        -0.030791
 C        -2.478781         0.041456         0.788727
 H         0.234247        -1.064093        -0.179527
 H        -0.458709         2.600286         1.056152
 H        -1.734043         2.137253        -0.429648
 H        -0.503595         1.300389         3.044642
 H        -1.415136        -0.499613         2.719992
 H        -5.396243         1.600018         1.081698
 H        -4.292991         2.578665         0.077031
 H        -4.424299        -0.410446         0.101498
 H        -3.638369         0.540809        -1.061061
 H        -2.457164        -0.954909         1.214951
