19
Iteration:  2174charge 0 multiplicity 1
 O         0.134469        -0.176235         0.234113
 C        -0.995171         0.378496         0.726503
 C        -1.300384         1.878696         0.714893
 C        -2.265972         1.239702         1.716289
 C        -1.000587         0.452773         2.283622
 O        -3.597715         1.727590         2.085896
 C        -4.363055         1.633224         0.813280
 C        -3.576587         0.673461        -0.162236
 C        -2.494447         0.061150         0.736708
 H         0.084477        -0.004338        -0.706640
 H        -0.403567         2.475044         1.084990
 H        -1.675631         2.295409        -0.286451
 H        -0.385428         1.164622         2.785668
 H        -1.152417        -0.557710         2.742894
 H        -5.373072         1.321656         1.145471
 H        -4.481095         2.619917         0.415341
 H        -4.259069        -0.151575        -0.639210
 H        -3.017288         0.950742        -1.085553
 H        -2.636505        -0.950529         1.122706
