19
Iteration:  3849charge 0 multiplicity 1
 O         0.117651        -0.242406         0.029527
 C        -0.933754         0.369018         0.813974
 C        -1.190145         1.875348         0.663401
 C        -2.268899         1.370000         1.675221
 C        -1.106564         0.641148         2.398809
 O        -3.601103         1.921679         2.005295
 C        -4.485858         1.324851         0.905022
 C        -3.522156         0.557256        -0.123340
 C        -2.399504         0.136505         0.778989
 H        -0.449604        -1.015908        -0.349250
 H        -0.418481         2.453359         1.164014
 H        -1.407279         2.238015        -0.299993
 H        -0.377416         1.312433         2.765966
 H        -1.437890        -0.172549         2.983821
 H        -5.140291         0.600822         1.399483
 H        -4.776434         2.141195         0.316188
 H        -4.156171        -0.280582        -0.528711
 H        -3.289608         1.244763        -1.038817
 H        -2.590074        -0.871932         1.320941
