19
Iteration:  3140
 O         0.141311        -0.200225         0.070338
 C        -0.878073         0.412243         0.789099
 C        -1.200850         1.923452         0.686450
 C        -2.298140         1.305967         1.722745
 C        -1.091572         0.530951         2.309561
 O        -3.547155         1.754331         2.060888
 C        -4.377812         1.564928         0.787657
 C        -3.703532         0.575053        -0.155198
 C        -2.474637         0.048029         0.779057
 H         0.460390        -0.837715         0.745139
 H        -0.560111         2.701165         1.204842
 H        -1.680579         2.280573        -0.194867
 H        -0.423080         1.279229         2.776501
 H        -1.262905        -0.322005         2.904291
 H        -5.358331         1.239585         1.046608
 H        -4.623084         2.590562         0.310288
 H        -4.324857        -0.320986        -0.211912
 H        -3.388074         0.981974        -1.207173
 H        -2.711562        -0.986633         1.125965
