19
Iteration:  3089charge 0 multiplicity 1
 O         0.102727        -0.253875         0.117666
 C        -0.947538         0.369410         0.752406
 C        -1.202256         1.921830         0.663747
 C        -2.254732         1.332465         1.673380
 C        -1.079565         0.533400         2.386667
 O        -3.515274         1.940917         1.998181
 C        -4.484966         1.271117         0.943819
 C        -3.584947         0.732647        -0.244851
 C        -2.483272         0.131516         0.747130
 H        -0.068007        -1.258501         0.281551
 H        -0.514201         2.513056         1.237339
 H        -1.358961         2.456379        -0.293522
 H        -0.311158         1.243318         2.951574
 H        -1.283201        -0.403269         2.968104
 H        -4.833923         0.211183         1.421918
 H        -5.317006         1.805461         0.515176
 H        -4.075760         0.042493        -0.926012
 H        -2.994391         1.388098        -0.811082
 H        -2.858314        -0.689500         1.363876
