19
Iteration:  4361
 O         0.174530        -0.153542         0.147268
 C        -0.968808         0.454441         0.741851
 C        -1.401397         1.918114         0.567809
 C        -2.342179         1.163116         1.762042
 C        -0.999071         0.663412         2.348210
 O        -3.522840         1.709736         2.039951
 C        -4.255619         1.687861         0.750680
 C        -3.638804         0.456832        -0.109117
 C        -2.476877        -0.026879         0.855206
 H        -0.187364        -0.963371        -0.341069
 H        -0.832954         2.777385         1.029562
 H        -1.897399         2.325392        -0.386874
 H        -0.409255         1.364215         2.948844
 H        -1.057206        -0.318544         2.932802
 H        -5.220317         1.486697         1.156084
 H        -4.119119         2.773770         0.341440
 H        -4.338372        -0.269138        -0.328339
 H        -3.199098         0.844792        -1.064725
 H        -2.831553        -0.927556         1.355205
