19
Iteration:  2602
 O         0.177396        -0.248466         0.201807
 C        -0.933688         0.393967         0.715370
 C        -1.314895         1.921705         0.686968
 C        -2.294364         1.195763         1.728038
 C        -1.099501         0.575547         2.299382
 O        -3.599940         1.709108         2.102349
 C        -4.249660         1.651789         0.800860
 C        -3.640170         0.597566        -0.090223
 C        -2.503872         0.010846         0.677782
 H         0.261168         0.230795        -0.671150
 H        -0.652211         2.652758         1.137873
 H        -1.770246         2.389044        -0.260988
 H        -0.346577         1.190654         2.846401
 H        -1.019482        -0.375670         2.864989
 H        -5.412284         1.610253         0.937285
 H        -4.057661         2.632364         0.360681
 H        -4.406874        -0.202186        -0.354610
 H        -3.269096         1.174015        -0.989241
 H        -2.796394        -1.052543         1.089287
