19
Iteration:   929charge 0 multiplicity 1
 O         0.224216        -0.238100         0.106616
 C        -0.980803         0.288191         0.772707
 C        -1.276294         1.868464         0.737575
 C        -2.363127         1.312039         1.726123
 C        -1.096997         0.522374         2.285492
 O        -3.567444         1.825847         2.103646
 C        -4.448859         1.483621         0.944116
 C        -3.560524         0.699355        -0.255152
 C        -2.461673         0.051079         0.650831
 H         1.014531         0.196510         0.320844
 H        -0.450506         2.457211         1.107745
 H        -1.481753         2.293384        -0.311812
 H        -0.378221         1.288962         2.642740
 H        -1.279152        -0.392356         2.900744
 H        -5.343340         0.870544         1.233012
 H        -4.828616         2.427554         0.537869
 H        -4.250786         0.002170        -0.602314
 H        -3.181847         1.460529        -0.943873
 H        -2.736228        -0.918148         1.047472
