19
Iteration:  1115
 O         0.000307        -0.169582         0.105607
 C        -0.961181         0.410485         0.793706
 C        -1.318736         1.842594         0.703566
 C        -2.321231         1.236901         1.683306
 C        -1.119062         0.514851         2.411696
 O        -3.571969         1.710882         2.014560
 C        -4.232285         1.628358         0.831786
 C        -3.533508         0.587867        -0.141439
 C        -2.385944         0.008160         0.726246
 H         0.704791         0.389388        -0.128855
 H        -0.597754         2.620609         0.946411
 H        -1.728280         2.108429        -0.217841
 H        -0.352166         1.271382         2.799463
 H        -1.538041        -0.340268         2.902398
 H        -5.337628         1.501961         1.066720
 H        -4.193083         2.640858         0.393927
 H        -4.174827        -0.222712        -0.571681
 H        -3.266029         1.280471        -0.883294
 H        -2.576270        -0.875253         1.301546
