19
Iteration:  4638
 O         0.215680        -0.316533         0.191155
 C        -0.796830         0.415989         0.778541
 C        -1.253798         1.931808         0.593448
 C        -2.270160         1.237064         1.613742
 C        -1.124105         0.570449         2.356566
 O        -3.486293         1.935634         1.940167
 C        -4.495815         1.459704         1.012092
 C        -3.698504         0.592244        -0.116832
 C        -2.493911         0.031712         0.738116
 H         0.393553        -0.015173        -0.667938
 H        -0.643338         2.734680         1.004998
 H        -1.692430         2.154976        -0.389661
 H        -0.508177         1.249582         2.990877
 H        -1.440834        -0.327530         2.881288
 H        -5.289150         0.871352         1.482279
 H        -4.892350         2.276834         0.472206
 H        -4.247920        -0.356812        -0.364151
 H        -3.560442         1.298596        -0.890493
 H        -2.844694        -0.862834         1.307855
