19
Iteration:  2325
 O         0.125215        -0.326133         0.219600
 C        -0.955763         0.399405         0.747442
 C        -1.253031         2.015025         0.741699
 C        -2.294836         1.282941         1.675414
 C        -1.030196         0.506705         2.347162
 O        -3.541261         1.707592         2.054686
 C        -4.441296         1.552945         0.828657
 C        -3.594881         0.694060        -0.176971
 C        -2.465950         0.102330         0.661082
 H        -0.113206        -0.483903        -0.669908
 H        -0.521882         2.687339         1.244057
 H        -1.519382         2.279553        -0.280453
 H        -0.168786         1.234002         2.816031
 H        -1.060099        -0.450709         2.894416
 H        -5.242716         0.947334         1.330697
 H        -4.870391         2.595218         0.614063
 H        -4.127474        -0.154739        -0.453016
 H        -3.304872         1.390865        -0.997110
 H        -2.646355        -0.996012         0.860724
