19
Iteration:   903
 O         0.002479        -0.227308         0.102155
 C        -0.927262         0.521627         0.791480
 C        -1.317887         1.988907         0.725149
 C        -2.282099         1.197760         1.764821
 C        -1.103683         0.468961         2.375292
 O        -3.469928         1.687164         1.967240
 C        -4.361469         1.575020         0.810160
 C        -3.578329         0.638770        -0.138863
 C        -2.433554         0.049958         0.740419
 H         0.903226         0.044416         0.068855
 H        -0.554726         2.733586         0.961154
 H        -1.798574         2.254256        -0.166450
 H        -0.376632         0.962890         3.025399
 H        -1.471497        -0.587059         2.693636
 H        -5.301366         1.107561         1.138326
 H        -4.607697         2.544019         0.324086
 H        -4.285528        -0.136708        -0.506135
 H        -3.131946         1.193505        -0.968975
 H        -2.511866        -0.972487         1.134702
