19
Iteration:  1336charge 0 multiplicity 1
 O         0.136888        -0.301557         0.152207
 C        -0.884245         0.383330         0.787943
 C        -1.181043         1.946939         0.703715
 C        -2.326127         1.273162         1.608900
 C        -1.164138         0.559321         2.338723
 O        -3.555707         1.827440         2.078955
 C        -4.476248         1.399369         1.004056
 C        -3.620505         0.736702        -0.194525
 C        -2.396093         0.065380         0.554684
 H         0.983695        -0.022290         0.426113
 H        -0.406988         2.557778         1.095656
 H        -1.540593         2.235722        -0.308103
 H        -0.226657         1.060304         2.848395
 H        -1.462495        -0.291728         3.014030
 H        -5.297322         0.626906         1.337409
 H        -4.986583         2.337037         0.545517
 H        -4.248503        -0.096100        -0.619797
 H        -3.457140         1.463266        -1.019915
 H        -2.740241        -0.859838         0.974840
