19
Iteration:  1958charge 0 multiplicity 1
 O         0.036899        -0.283977         0.041423
 C        -0.942102         0.439881         0.760233
 C        -1.237837         2.028114         0.743375
 C        -2.352487         1.256440         1.721289
 C        -1.047375         0.515528         2.304429
 O        -3.583656         1.667579         2.036566
 C        -4.317401         1.613445         0.788602
 C        -3.593640         0.556547        -0.052081
 C        -2.419118         0.067948         0.751444
 H         0.994290         0.014755         0.161442
 H        -0.579682         2.681181         1.244590
 H        -1.642154         2.583741        -0.083791
 H        -0.500968         1.128589         3.015523
 H        -1.476125        -0.442255         2.866316
 H        -5.455194         1.509015         0.936130
 H        -3.995263         2.536503         0.131163
 H        -4.304445        -0.161251        -0.335203
 H        -3.349308         0.951111        -1.042098
 H        -2.692820        -0.886701         1.283837
