19
Iteration:  1963charge 0 multiplicity 1
 O         0.040245        -0.286775         0.022225
 C        -0.888847         0.435837         0.746829
 C        -1.232135         1.989853         0.734872
 C        -2.325975         1.295831         1.709629
 C        -1.091594         0.510777         2.348382
 O        -3.626687         1.668999         2.035068
 C        -4.319064         1.630124         0.820246
 C        -3.589736         0.551452        -0.076951
 C        -2.421455         0.042537         0.772052
 H         0.905798         0.002103         0.212717
 H        -0.567766         2.813048         1.204393
 H        -1.685785         2.583144        -0.109939
 H        -0.398818         1.133816         2.968779
 H        -1.333460        -0.429030         2.738781
 H        -5.365927         1.543704         0.869179
 H        -4.214800         2.578103         0.319371
 H        -4.394110        -0.172908        -0.488034
 H        -3.247139         1.011882        -1.029981
 H        -2.560116        -0.871212         1.371106
