19
Iteration:  1799
 O         0.127704        -0.270235         0.030669
 C        -0.921853         0.393146         0.714231
 C        -1.285077         1.917212         0.743886
 C        -2.279656         1.209048         1.695810
 C        -1.166131         0.539931         2.378164
 O        -3.525675         1.929330         2.032686
 C        -4.406596         1.398731         0.912312
 C        -3.545754         0.656834        -0.157468
 C        -2.461506         0.071498         0.721373
 H         1.011576        -0.294315         0.516107
 H        -0.520217         2.745034         0.968816
 H        -1.824434         2.280638        -0.138770
 H        -0.368399         1.075856         2.957497
 H        -1.581086        -0.369794         2.918730
 H        -5.233035         0.866791         1.378776
 H        -4.964757         2.269538         0.585753
 H        -4.177127        -0.018194        -0.822470
 H        -3.182060         1.411084        -0.890010
 H        -2.657654        -0.951379         1.042826
