19
Iteration:  3214charge 0 multiplicity 1
 O         0.158832        -0.088185         0.039192
 C        -0.936923         0.379599         0.675227
 C        -1.315574         1.913460         0.748718
 C        -2.362812         1.203310         1.718328
 C        -1.080346         0.580866         2.388939
 O        -3.621872         1.692077         2.034563
 C        -4.176795         1.760632         0.750200
 C        -3.722878         0.463136        -0.091848
 C        -2.402403        -0.024185         0.837165
 H         0.134979        -1.098463         0.139811
 H        -0.581076         2.659298         1.283595
 H        -1.546666         2.359028        -0.240349
 H        -0.252126         1.108929         2.804567
 H        -1.330234        -0.317499         2.972381
 H        -5.229271         1.798355         0.809343
 H        -4.040965         2.742895         0.305908
 H        -4.568423        -0.194321        -0.199736
 H        -3.279837         0.759661        -1.094659
 H        -2.591028        -1.003788         1.351791
