19
Iteration:  1153charge 0 multiplicity 1
 O         0.055556        -0.246110         0.024539
 C        -0.857056         0.440978         0.819344
 C        -1.344077         1.997133         0.879894
 C        -2.306084         1.287806         1.721982
 C        -1.032666         0.485099         2.345206
 O        -3.584718         1.713910         2.004293
 C        -4.284776         1.638005         0.754035
 C        -3.715209         0.468067        -0.150216
 C        -2.434688         0.090037         0.727262
 H         0.977304         0.135155         0.202749
 H        -0.539947         2.648085         1.261160
 H        -1.657766         2.262423        -0.196093
 H        -0.300027         1.014998         2.908125
 H        -1.285157        -0.467406         2.914658
 H        -5.330575         1.709537         0.977410
 H        -3.936288         2.538744         0.162581
 H        -4.319486        -0.398286        -0.311287
 H        -3.387509         0.843470        -1.189603
 H        -2.731796        -0.865143         1.272637
