19
Iteration:  1675
 O         0.052163        -0.262081         0.035387
 C        -0.927568         0.487183         0.783089
 C        -1.131167         1.964563         0.738857
 C        -2.253644         1.242683         1.621522
 C        -1.127189         0.495399         2.440853
 O        -3.525343         1.843962         2.043325
 C        -4.476776         1.420718         0.871911
 C        -3.672050         0.574952        -0.140797
 C        -2.414633         0.092396         0.678560
 H         0.982019        -0.050158         0.408254
 H        -0.520541         2.666008         1.342547
 H        -1.515796         2.389692        -0.246668
 H        -0.520367         1.068512         3.048288
 H        -1.489462        -0.514200         2.609890
 H        -5.347800         1.028048         1.271465
 H        -4.593596         2.287497         0.351951
 H        -4.200770        -0.188696        -0.708775
 H        -3.181294         1.274615        -0.905743
 H        -2.672989        -0.810666         1.272805
