19
Iteration:   737
 O         0.024454        -0.243455         0.082765
 C        -0.907727         0.384517         0.824412
 C        -1.206859         1.938711         0.806744
 C        -2.322004         1.239351         1.701626
 C        -1.063368         0.455108         2.381617
 O        -3.503093         1.933757         1.931530
 C        -4.458830         1.329342         0.907780
 C        -3.582034         0.683629        -0.256351
 C        -2.477019         0.085126         0.718431
 H         0.889911         0.261389         0.076971
 H        -0.558232         2.658044         1.340540
 H        -1.462148         2.407910        -0.120683
 H        -0.211106         1.094355         2.866903
 H        -1.205150        -0.476257         2.927641
 H        -5.012819         0.691955         1.591035
 H        -5.066391         2.186108         0.533998
 H        -4.139463        -0.005878        -0.987290
 H        -3.277762         1.521433        -0.844384
 H        -2.754246        -0.977679         1.006183
