19
Iteration:  3282charge 0 multiplicity 1
 O         0.160643        -0.172235         0.150624
 C        -0.952736         0.350378         0.799850
 C        -1.178444         1.845549         0.691474
 C        -2.246865         1.300988         1.658121
 C        -1.126762         0.562517         2.390964
 O        -3.479876         1.876349         1.985918
 C        -4.472478         1.341842         0.938044
 C        -3.647443         0.720119        -0.226244
 C        -2.501084         0.078765         0.661792
 H         0.013141        -1.155054         0.043364
 H        -0.335016         2.447877         1.223693
 H        -1.413426         2.302008        -0.312746
 H        -0.233880         1.128236         2.727164
 H        -1.449708        -0.224665         2.995993
 H        -5.124899         0.652116         1.425599
 H        -5.297998         2.073467         0.716763
 H        -4.157400         0.057357        -0.967339
 H        -3.251532         1.723436        -0.614465
 H        -2.790413        -0.868073         1.241255
