19
Iteration:  1597charge 0 multiplicity 1
 O         0.097852        -0.184172         0.058088
 C        -0.986285         0.374058         0.804792
 C        -1.426567         1.891019         0.686234
 C        -2.259015         1.213721         1.712747
 C        -1.115343         0.558371         2.437384
 O        -3.511477         1.632842         2.102961
 C        -4.199794         1.677496         0.773769
 C        -3.620086         0.596989        -0.224795
 C        -2.477366         0.043646         0.758536
 H         0.846409         0.512744         0.009535
 H        -0.633798         2.510864         1.063301
 H        -1.878710         2.278493        -0.311317
 H        -0.331333         1.192365         2.826630
 H        -1.336820        -0.130882         3.200868
 H        -5.205328         1.606216         1.043364
 H        -4.088039         2.650136         0.391278
 H        -4.260915        -0.279603        -0.388981
 H        -3.440405         1.053581        -1.235827
 H        -2.706685        -1.051130         1.078358
