19
Iteration:  4451charge 0 multiplicity 1
 O         0.135881        -0.266674         0.044053
 C        -1.012839         0.472661         0.742780
 C        -1.348704         1.930136         0.593308
 C        -2.269397         1.218251         1.742037
 C        -1.052228         0.631966         2.362335
 O        -3.543841         1.790041         2.077536
 C        -4.339373         1.592800         0.804283
 C        -3.588183         0.535441        -0.141273
 C        -2.447155         0.006381         0.805630
 H         0.495706        -0.783031         0.768672
 H        -0.607561         2.744156         0.974401
 H        -1.807607         2.278214        -0.395424
 H        -0.312900         1.324017         2.869924
 H        -1.234607        -0.267779         3.074347
 H        -5.278191         1.133536         1.294587
 H        -4.594608         2.456576         0.120990
 H        -4.326016        -0.233551        -0.401177
 H        -3.239398         0.997562        -0.953856
 H        -2.537037        -0.877927         1.422585
