19
Iteration:  2246charge 0 multiplicity 1
 O         0.203039        -0.233253         0.147391
 C        -0.878024         0.475296         0.688549
 C        -1.264364         1.969888         0.806756
 C        -2.318549         1.195461         1.713514
 C        -1.124577         0.465485         2.256797
 O        -3.580120         1.694117         2.081132
 C        -4.250517         1.754704         0.719588
 C        -3.735785         0.442269        -0.116971
 C        -2.502700         0.037567         0.781669
 H         0.363936         0.244748        -0.629541
 H        -0.591489         2.586074         1.352921
 H        -1.750343         2.557568         0.029136
 H        -0.193263         0.947050         2.965504
 H        -1.386389        -0.431644         2.798463
 H        -5.335339         1.895854         0.939587
 H        -3.922738         2.806326         0.342815
 H        -4.623605        -0.243094        -0.250311
 H        -3.602828         0.817990        -1.220376
 H        -2.692094        -0.857333         1.454867
