19
Iteration:  4414charge 0 multiplicity 1
 O         0.197999        -0.146759         0.029455
 C        -0.831695         0.464691         0.727459
 C        -1.247827         1.977261         0.658303
 C        -2.294689         1.310597         1.646448
 C        -1.116767         0.510809         2.408367
 O        -3.544456         1.747568         1.996702
 C        -4.345791         1.637277         0.769439
 C        -3.761290         0.384848         0.032334
 C        -2.465336         0.032149         0.783162
 H         0.171637        -0.980765         0.600536
 H        -0.520881         2.611716         1.135312
 H        -1.688984         2.293109        -0.277333
 H        -0.376845         1.123498         2.847756
 H        -1.486273        -0.333048         2.938147
 H        -5.352172         1.550621         1.057256
 H        -4.244205         2.643122         0.295601
 H        -4.452830        -0.421734        -0.079181
 H        -3.591068         0.633471        -1.137005
 H        -2.811149        -0.743317         1.521618
