19
Iteration:  3949charge 0 multiplicity 1
 O         0.081885        -0.329143         0.213760
 C        -0.916866         0.472194         0.718138
 C        -1.241911         1.955024         0.552133
 C        -2.321145         1.293107         1.635776
 C        -1.115106         0.687338         2.315521
 O        -3.510746         1.852707         2.049569
 C        -4.377211         1.317840         1.015469
 C        -3.586373         0.637371        -0.192115
 C        -2.431054         0.059505         0.670124
 H         0.326443        -0.862217         0.950068
 H        -0.499428         2.582693         1.026493
 H        -1.381792         2.530814        -0.359100
 H        -0.416557         1.349185         2.727472
 H        -1.480825        -0.144350         2.913218
 H        -5.175627         0.584768         1.556948
 H        -5.114713         2.112236         0.704325
 H        -4.254914        -0.142258        -0.781997
 H        -3.330984         1.375238        -1.007973
 H        -2.594895        -1.031456         1.108067
