19
Iteration:   776
 O         0.072060        -0.320725         0.107687
 C        -0.881955         0.522261         0.804689
 C        -1.163263         1.980052         0.674214
 C        -2.277939         1.294388         1.725959
 C        -1.110377         0.488890         2.407333
 O        -3.561567         1.683208         2.186592
 C        -4.409592         1.502732         0.827528
 C        -3.630725         0.559878        -0.286149
 C        -2.490068         0.192411         0.672623
 H         0.774056         0.196663        -0.334610
 H        -0.464126         2.638055         1.154700
 H        -1.596385         2.337739        -0.366614
 H        -0.463277         0.993691         3.051869
 H        -1.577782        -0.375676         2.937447
 H        -5.467973         1.255258         1.050447
 H        -4.307047         2.464582         0.325509
 H        -4.127629        -0.349279        -0.603505
 H        -3.376881         1.148305        -1.253111
 H        -2.660391        -0.806678         1.059634
