19
Iteration:  3825charge 0 multiplicity 1
 O         0.033024        -0.312854         0.162638
 C        -0.989422         0.441217         0.806881
 C        -1.235410         2.060090         0.562407
 C        -2.257864         1.317414         1.657700
 C        -1.024581         0.628583         2.385776
 O        -3.521669         1.729806         1.993372
 C        -4.424039         1.419065         0.841281
 C        -3.512607         0.542498        -0.134425
 C        -2.469638         0.098808         0.862547
 H        -0.389840        -0.493430        -0.693489
 H        -0.397777         2.604608         0.993608
 H        -1.626730         2.535395        -0.345737
 H        -0.384287         1.323095         2.930693
 H        -1.198215        -0.308571         2.870271
 H        -5.182435         0.804319         1.287007
 H        -4.647899         2.368872         0.346862
 H        -4.132920        -0.220972        -0.548956
 H        -3.137889         1.187266        -1.023106
 H        -2.783195        -0.770019         1.540840
