19
Iteration:  3280charge 0 multiplicity 1
 O         0.155043        -0.181820         0.138970
 C        -0.961345         0.348445         0.790252
 C        -1.182917         1.856319         0.707084
 C        -2.252882         1.294513         1.660063
 C        -1.130136         0.570331         2.385949
 O        -3.475880         1.878690         1.993661
 C        -4.470077         1.349214         0.916598
 C        -3.651320         0.714773        -0.226930
 C        -2.487655         0.067382         0.680707
 H         0.081695        -1.112254         0.027483
 H        -0.298878         2.446399         1.239735
 H        -1.460493         2.273397        -0.283335
 H        -0.279161         1.192381         2.699477
 H        -1.452274        -0.271189         3.012717
 H        -5.125871         0.583240         1.375275
 H        -5.226400         2.147166         0.699942
 H        -4.125686         0.089696        -0.948052
 H        -3.286378         1.730215        -0.593868
 H        -2.716860        -0.837105         1.315288
