19
Iteration:  2707
 O         0.217678        -0.385835         0.196558
 C        -0.878426         0.420856         0.749183
 C        -1.146524         1.993230         0.649382
 C        -2.333902         1.350880         1.625467
 C        -1.205442         0.484364         2.378171
 O        -3.546392         1.850699         2.074659
 C        -4.436279         1.294109         0.957688
 C        -3.668284         0.738640        -0.178563
 C        -2.435918         0.151114         0.616233
 H        -0.050457        -0.305856        -0.745112
 H        -0.221324         2.497117         1.120830
 H        -1.438730         2.430557        -0.314487
 H        -0.550539         1.221942         3.001716
 H        -1.463935        -0.446179         2.797403
 H        -4.939681         0.504516         1.506093
 H        -5.075445         2.267815         0.719677
 H        -4.255971         0.067188        -0.753225
 H        -3.214104         1.502026        -0.847016
 H        -2.931153        -0.581571         1.243166
