19
Iteration:   640charge 0 multiplicity 1
 O         0.092001        -0.291110         0.121512
 C        -0.953268         0.413701         0.747668
 C        -1.219178         1.958240         0.617400
 C        -2.296211         1.224497         1.637823
 C        -1.202282         0.526940         2.333198
 O        -3.556600         1.733845         2.048819
 C        -4.407520         1.422977         0.938012
 C        -3.494100         0.752174        -0.149904
 C        -2.449432         0.118329         0.726231
 H         0.964533         0.129861         0.434864
 H        -0.498354         2.590341         1.312543
 H        -1.673840         2.465897        -0.214885
 H        -0.421346         1.179815         2.877659
 H        -1.491921        -0.413476         2.730511
 H        -5.199063         0.713628         1.287174
 H        -4.823763         2.411932         0.600029
 H        -3.958351        -0.055837        -0.766944
 H        -3.097400         1.452367        -0.818584
 H        -2.771316        -0.771078         1.258116
