19
Iteration:  3154charge 0 multiplicity 1
 O         0.237920        -0.129920         0.126534
 C        -0.970952         0.388700         0.696673
 C        -1.324979         1.883676         0.690041
 C        -2.323037         1.192866         1.658581
 C        -1.075195         0.535412         2.325432
 O        -3.608938         1.797653         2.049703
 C        -4.314672         1.687835         0.828350
 C        -3.651459         0.470852        -0.059097
 C        -2.494033         0.068789         0.711439
 H         0.582606        -0.881703         0.593945
 H        -0.532301         2.422463         1.099138
 H        -1.559834         2.327507        -0.279669
 H        -0.166352         1.086942         2.799341
 H        -1.268235        -0.444811         2.837640
 H        -5.346531         1.446410         1.199057
 H        -4.059769         2.559092         0.329460
 H        -4.387733        -0.293176        -0.338904
 H        -3.421890         0.929393        -0.991164
 H        -2.719310        -0.771222         1.346080
