19
Iteration:  2991
 O         0.121475        -0.244268         0.072936
 C        -0.894719         0.383906         0.733005
 C        -1.289388         1.879172         0.702733
 C        -2.316110         1.288585         1.685779
 C        -1.110092         0.533609         2.343398
 O        -3.520577         1.848852         2.047055
 C        -4.468686         1.475117         0.889838
 C        -3.532091         0.663477        -0.198030
 C        -2.461487         0.060426         0.766239
 H         0.416624        -1.113716         0.484820
 H        -0.656337         2.703539         1.073984
 H        -1.687001         2.335904        -0.217594
 H        -0.479755         1.341132         2.833126
 H        -1.138845        -0.321030         2.984999
 H        -5.091106         0.760300         1.194094
 H        -4.833392         2.442087         0.574390
 H        -4.028474        -0.023959        -0.857481
 H        -3.141243         1.412596        -0.825548
 H        -2.768209        -0.822799         1.390422
