19
Iteration:  4630
 O         0.200646        -0.358253         0.225942
 C        -0.812691         0.468460         0.792413
 C        -1.235638         1.962403         0.631832
 C        -2.286074         1.279176         1.565137
 C        -1.101613         0.573960         2.295973
 O        -3.453048         1.891197         1.964530
 C        -4.517659         1.471253         1.004340
 C        -3.688320         0.529078        -0.151914
 C        -2.527103         0.077462         0.771672
 H         0.165086        -0.101954        -0.684035
 H        -0.605603         2.672683         1.199906
 H        -1.426374         2.399289        -0.406565
 H        -0.310443         1.218188         2.828568
 H        -1.359432        -0.342176         2.888482
 H        -5.256832         0.784343         1.551323
 H        -5.183219         2.305928         0.530787
 H        -4.272203        -0.373382        -0.599422
 H        -3.545760         1.191512        -0.923829
 H        -2.791405        -0.826697         1.292217
