19
Iteration:   862
 O         0.081825        -0.215210        -0.088344
 C        -0.894357         0.474947         0.751649
 C        -1.205880         1.996422         0.825331
 C        -2.281828         1.295760         1.764340
 C        -1.143744         0.482136         2.421119
 O        -3.614659         1.628054         2.022386
 C        -4.281875         1.678782         0.649149
 C        -3.696067         0.478725        -0.075378
 C        -2.465922         0.010383         0.833119
 H         0.924314         0.257615         0.287456
 H        -0.515084         2.556836         1.368596
 H        -1.553227         2.551602        -0.106380
 H        -0.532091         1.196922         2.896283
 H        -1.244675        -0.588708         2.810522
 H        -5.348799         1.773554         0.921019
 H        -4.019989         2.696995         0.310677
 H        -4.364289        -0.254939        -0.213127
 H        -3.276878         0.860882        -1.022188
 H        -2.580432        -0.876371         1.398275
