19
Iteration:  1095
 O         0.132678        -0.261699         0.087909
 C        -0.904759         0.386879         0.813384
 C        -1.333678         1.973730         0.631122
 C        -2.343695         1.213094         1.701155
 C        -1.152111         0.538427         2.445520
 O        -3.464216         1.710386         2.138260
 C        -4.317050         1.592486         0.753928
 C        -3.585106         0.630453        -0.249019
 C        -2.526164         0.053960         0.745501
 H         0.795647         0.434488        -0.017873
 H        -0.608344         2.788329         0.983646
 H        -1.617034         2.239046        -0.349457
 H        -0.432293         1.272515         3.078910
 H        -1.468655        -0.421807         2.780000
 H        -5.263032         1.203825         1.228451
 H        -4.524086         2.668270         0.553023
 H        -4.267651        -0.281014        -0.409146
 H        -3.117115         0.907702        -1.129057
 H        -2.905313        -0.870767         1.200947
