19
Iteration:  4911
 O         0.071663        -0.288670         0.070142
 C        -0.930448         0.437372         0.718245
 C        -1.222261         2.006510         0.649858
 C        -2.319895         1.257877         1.605265
 C        -1.081447         0.549439         2.392868
 O        -3.479247         1.900113         2.023710
 C        -4.399944         1.522281         0.919391
 C        -3.649058         0.436584        -0.092661
 C        -2.424965         0.067077         0.718063
 H         0.852260        -0.399539         0.589394
 H        -0.550012         2.559437         1.239232
 H        -1.659543         2.402465        -0.284988
 H        -0.345592         1.198975         2.795950
 H        -1.330694        -0.317229         2.932511
 H        -5.246886         0.946797         1.475664
 H        -4.791599         2.433182         0.232224
 H        -4.441673        -0.330096        -0.224201
 H        -3.564623         0.887989        -1.071288
 H        -2.725690        -0.691610         1.507848
