19
Iteration:    17charge 0 multiplicity 1
 O         0.048941        -0.274264         0.021695
 C        -0.953918         0.427209         0.815752
 C        -1.108116         1.903767         0.778338
 C        -2.341137         1.195938         1.764255
 C        -1.151295         0.436656         2.457996
 O        -3.604852         1.807374         1.970317
 C        -4.465380         1.342332         0.836686
 C        -3.456298         0.886235        -0.195062
 C        -2.470405         0.127271         0.673030
 H         0.841157        -0.180764         0.498203
 H        -0.344804         2.590593         1.211692
 H        -1.295700         2.367060        -0.227268
 H        -0.347309         1.168394         2.789460
 H        -1.375107        -0.485515         3.055233
 H        -5.141381         0.513858         1.124137
 H        -5.124669         2.165865         0.477077
 H        -3.896070         0.386231        -1.086220
 H        -2.960668         1.821653        -0.624381
 H        -2.775832        -0.917252         0.969806
