19
Iteration:  3115charge 0 multiplicity 1
 O        -0.011249        -0.283672         0.054934
 C        -0.914045         0.434493         0.773611
 C        -1.212964         1.938993         0.667090
 C        -2.263042         1.334484         1.673090
 C        -1.140217         0.571741         2.417155
 O        -3.547537         1.791713         1.991102
 C        -4.390261         1.386038         0.985848
 C        -3.523950         0.619651        -0.202690
 C        -2.388941         0.165681         0.705009
 H         0.249142        -1.065416         0.644505
 H        -0.575567         2.673933         1.250572
 H        -1.559927         2.326633        -0.335436
 H        -0.497817         1.212047         2.917730
 H        -1.409642        -0.334524         2.992720
 H        -5.326279         0.876443         1.292478
 H        -4.783039         2.277954         0.325476
 H        -3.993397        -0.253758        -0.688949
 H        -3.143832         1.369228        -0.941747
 H        -2.682436        -0.823484         1.206050
