19
Iteration:   881charge 0 multiplicity 1
 O         0.007595        -0.255927        -0.035669
 C        -0.911851         0.439058         0.791774
 C        -1.227820         1.974348         0.846262
 C        -2.331752         1.218948         1.691004
 C        -1.096357         0.548748         2.415866
 O        -3.636145         1.732567         2.150305
 C        -4.252414         1.600232         0.770096
 C        -3.589002         0.472031        -0.198322
 C        -2.429392         0.134364         0.650839
 H         0.935605         0.155463         0.036094
 H        -0.546583         2.606948         1.452582
 H        -1.475239         2.489530        -0.015339
 H        -0.295582         1.166309         2.874326
 H        -1.447948        -0.406823         2.933012
 H        -5.318885         1.417656         0.946893
 H        -4.190535         2.478267         0.101813
 H        -4.215291        -0.457415        -0.165895
 H        -3.432542         0.860410        -1.192241
 H        -2.566802        -0.797950         1.218032
