19
Iteration:  3909charge 0 multiplicity 1
 O         0.292391        -0.266953         0.219707
 C        -0.873822         0.455004         0.732195
 C        -1.105707         1.856485         0.560400
 C        -2.267458         1.324586         1.574675
 C        -1.143385         0.505444         2.265632
 O        -3.583289         1.978591         1.990783
 C        -4.528326         1.337518         1.066249
 C        -3.740899         0.604593        -0.188788
 C        -2.507493         0.136700         0.716127
 H         0.760209        -0.539577         1.061721
 H        -0.364046         2.560394         0.982719
 H        -1.493086         2.119913        -0.485991
 H        -0.369009         1.053040         2.947416
 H        -1.421988        -0.433117         2.873099
 H        -5.109459         0.584602         1.560078
 H        -5.418758         2.002325         0.908890
 H        -4.493698        -0.066921        -0.560076
 H        -3.410801         1.278852        -0.919006
 H        -2.678410        -0.782591         1.171047
