19
Iteration:  2018charge 0 multiplicity 1
 O         0.106173        -0.319490         0.116789
 C        -0.900431         0.428631         0.719050
 C        -1.250599         1.986255         0.709192
 C        -2.303678         1.224136         1.703401
 C        -1.084754         0.466905         2.329347
 O        -3.516546         1.844575         2.038451
 C        -4.493196         1.483613         0.865454
 C        -3.523178         0.635478        -0.174717
 C        -2.504835         0.074413         0.708944
 H         0.782517         0.342048         0.083173
 H        -0.521742         2.595469         1.355526
 H        -1.601551         2.491637        -0.253708
 H        -0.383420         0.984385         3.053124
 H        -1.453245        -0.325307         2.873115
 H        -5.283452         0.974164         1.361487
 H        -4.888305         2.504081         0.561893
 H        -4.237916        -0.230754        -0.525653
 H        -3.075049         1.355157        -0.864927
 H        -2.708510        -0.895328         1.173949
