19
Iteration:  3576
 O         0.052793        -0.292310         0.128724
 C        -0.971078         0.397708         0.787582
 C        -1.118376         1.939661         0.627429
 C        -2.261504         1.365489         1.664468
 C        -1.079950         0.537758         2.385710
 O        -3.514673         1.907478         1.936715
 C        -4.420685         1.179359         0.991967
 C        -3.557893         0.707382        -0.228138
 C        -2.547702         0.194201         0.697447
 H         0.592986        -0.777212         0.845073
 H        -0.391091         2.508133         1.210137
 H        -1.563886         2.384789        -0.316264
 H        -0.379950         1.177214         3.051420
 H        -1.416077        -0.453407         2.834285
 H        -4.900317         0.391113         1.651672
 H        -5.168330         1.995118         0.681000
 H        -4.226341         0.029608        -0.759024
 H        -3.434561         1.544763        -0.952039
 H        -2.898614        -0.698135         1.213144
