19
Iteration:  4557
 O         0.122617        -0.252421         0.150335
 C        -0.998781         0.363032         0.736414
 C        -1.204520         1.840560         0.642193
 C        -2.289807         1.306573         1.675874
 C        -1.088690         0.684756         2.397625
 O        -3.465033         1.927395         1.887976
 C        -4.483122         1.318026         1.025985
 C        -3.585427         0.618831        -0.108283
 C        -2.468938         0.106300         0.751162
 H        -0.077204        -0.893026        -0.529086
 H        -0.433507         2.501180         1.048189
 H        -1.512252         2.358490        -0.283982
 H        -0.336697         1.307164         2.836720
 H        -1.188386        -0.169876         3.077173
 H        -5.076545         0.488215         1.360072
 H        -5.161089         2.151439         0.728108
 H        -4.021970        -0.081078        -0.800573
 H        -3.192050         1.390791        -1.060297
 H        -2.751224        -0.905889         1.195977
