19
Iteration:  4665charge 0 multiplicity 1
 O         0.165644        -0.143431         0.201791
 C        -0.990727         0.307341         0.776630
 C        -1.284220         1.828540         0.531418
 C        -2.248975         1.281004         1.650772
 C        -1.126743         0.561929         2.329365
 O        -3.427080         1.938766         2.013762
 C        -4.408906         1.508340         0.940179
 C        -3.628704         0.533356        -0.153220
 C        -2.546029        -0.029918         0.797110
 H         0.606548         0.545880        -0.243046
 H        -0.469541         2.452210         0.968667
 H        -1.669532         2.065293        -0.497134
 H        -0.241936         1.129242         2.706556
 H        -1.477846        -0.273811         2.993943
 H        -5.136141         0.880926         1.556319
 H        -4.858305         2.528277         0.455534
 H        -4.199550        -0.342593        -0.436468
 H        -3.343054         1.107339        -1.135628
 H        -2.876405        -0.906823         1.353845
