19
Iteration:  4633charge 0 multiplicity 1
 O         0.207562        -0.348318         0.216117
 C        -0.794933         0.453595         0.785474
 C        -1.247291         1.957765         0.614840
 C        -2.277891         1.255209         1.583365
 C        -1.111609         0.572163         2.319289
 O        -3.460287         1.907674         1.954698
 C        -4.515207         1.478247         1.016964
 C        -3.692861         0.539477        -0.144628
 C        -2.515170         0.052379         0.771974
 H         0.248973        -0.032061        -0.759158
 H        -0.624872         2.719156         1.131945
 H        -1.495448         2.319848        -0.399800
 H        -0.417334         1.201746         2.863943
 H        -1.405703        -0.324197         2.895412
 H        -5.279033         0.817377         1.473837
 H        -5.136310         2.274415         0.466090
 H        -4.193818        -0.359323        -0.465847
 H        -3.593448         1.375392        -0.972860
 H        -2.852486        -0.852862         1.305162
