19
Iteration:  3117charge 0 multiplicity 1
 O        -0.012859        -0.282563         0.060036
 C        -0.910306         0.445453         0.779279
 C        -1.223786         1.946287         0.661000
 C        -2.258320         1.316941         1.665725
 C        -1.126914         0.566562         2.438260
 O        -3.537223         1.782731         1.998647
 C        -4.401548         1.396144         0.971909
 C        -3.543891         0.608960        -0.204959
 C        -2.391816         0.173162         0.694656
 H         0.302968        -1.070967         0.602114
 H        -0.558380         2.659020         1.253193
 H        -1.534376         2.283069        -0.320759
 H        -0.461958         1.209383         2.952957
 H        -1.404356        -0.329488         2.960483
 H        -5.318246         1.003309         1.240301
 H        -4.842891         2.264186         0.318664
 H        -4.017902        -0.261506        -0.673750
 H        -3.106325         1.369825        -0.980048
 H        -2.643491        -0.771765         1.267295
