19
Iteration:  1145charge 0 multiplicity 1
 O         0.091115        -0.270222         0.006356
 C        -0.831447         0.467041         0.780884
 C        -1.283783         1.979194         0.854742
 C        -2.334556         1.229189         1.717177
 C        -1.021373         0.501244         2.360911
 O        -3.628186         1.740263         2.064981
 C        -4.231365         1.620157         0.678232
 C        -3.726094         0.486117        -0.186375
 C        -2.505689         0.089522         0.798934
 H         1.036027         0.141722         0.027339
 H        -0.676318         2.717286         1.386708
 H        -1.776438         2.401455        -0.124380
 H        -0.328227         1.087018         2.932450
 H        -1.181579        -0.449208         3.012036
 H        -5.270619         1.508588         1.024733
 H        -4.100965         2.633139         0.326980
 H        -4.369628        -0.362173        -0.340938
 H        -3.386302         0.892588        -1.241476
 H        -2.811234        -0.771361         1.432413
