19
Iteration:  2256
 O         0.226349        -0.236193         0.149343
 C        -0.910862         0.483447         0.749193
 C        -1.316469         1.983313         0.809168
 C        -2.345301         1.131032         1.726920
 C        -1.082975         0.451326         2.310170
 O        -3.535364         1.779673         2.069193
 C        -4.294177         1.686188         0.746166
 C        -3.764145         0.526618        -0.128638
 C        -2.495366         0.027817         0.711368
 H         0.314109         0.079258        -0.731341
 H        -0.674543         2.590571         1.368885
 H        -1.631487         2.371454        -0.134193
 H        -0.174526         1.084656         2.715615
 H        -1.247391        -0.523527         2.757872
 H        -5.372570         1.777575         0.926211
 H        -3.892050         2.596365         0.176004
 H        -4.594769        -0.279765        -0.154282
 H        -3.242959         0.877628        -1.084937
 H        -2.692355        -0.955178         1.214619
