19
Iteration:   540
 O         0.195827        -0.222605         0.099061
 C        -0.866199         0.408714         0.794868
 C        -1.345860         1.948389         0.611010
 C        -2.326854         1.109665         1.670709
 C        -1.162978         0.578872         2.458873
 O        -3.588481         1.590802         2.031346
 C        -4.306037         1.769785         0.854513
 C        -3.613270         0.616427        -0.115440
 C        -2.400223        -0.037092         0.705936
 H         0.638609         0.410315        -0.403646
 H        -0.821744         2.710823         1.244034
 H        -1.910926         2.306928        -0.368086
 H        -0.427270         1.207275         3.075119
 H        -1.289321        -0.379818         3.047791
 H        -5.416351         1.838536         0.969630
 H        -4.090614         2.847534         0.440924
 H        -4.513654        -0.008800        -0.331230
 H        -3.525485         1.220146        -0.993373
 H        -2.762880        -1.002980         1.103455
