19
Iteration:  3808charge 0 multiplicity 1
 O         0.038544        -0.360316         0.238203
 C        -0.889644         0.510035         0.765733
 C        -1.359929         1.920974         0.653025
 C        -2.323140         1.267792         1.688532
 C        -1.015597         0.677291         2.318233
 O        -3.548698         1.804128         2.065314
 C        -4.339936         1.495497         0.844725
 C        -3.570489         0.531787        -0.124854
 C        -2.374546         0.065925         0.692458
 H         0.054876        -0.333144        -0.708156
 H        -0.778979         2.799314         0.998968
 H        -1.824775         2.152684        -0.305526
 H        -0.266592         1.428169         2.661800
 H        -1.229908        -0.317250         2.847276
 H        -5.316834         1.074592         1.259539
 H        -4.557840         2.485033         0.412403
 H        -4.190586        -0.358385        -0.487020
 H        -3.386036         1.050916        -1.032602
 H        -2.523085        -0.920495         1.089546
