19
Iteration:  1110
 O         0.003793        -0.175397         0.106834
 C        -0.934133         0.414747         0.854272
 C        -1.341912         1.842522         0.672146
 C        -2.257074         1.249435         1.649872
 C        -1.149185         0.519089         2.407702
 O        -3.536650         1.698628         2.039732
 C        -4.219778         1.611417         0.851398
 C        -3.548442         0.578549        -0.173313
 C        -2.440418         0.038391         0.723516
 H         0.771459         0.445829        -0.156158
 H        -0.747663         2.700106         1.058845
 H        -1.867301         2.089771        -0.327161
 H        -0.434944         1.149384         2.874876
 H        -1.513490        -0.370565         3.016424
 H        -5.248355         1.362294         0.991031
 H        -4.193014         2.567424         0.287689
 H        -4.253885        -0.080691        -0.647590
 H        -3.286292         1.361755        -0.992652
 H        -2.675458        -0.860736         1.361784
