19
Iteration:   450charge 0 multiplicity 1
 O         0.071216        -0.190174         0.099244
 C        -0.913707         0.432214         0.817328
 C        -1.136000         1.974659         0.847114
 C        -2.259022         1.345549         1.635978
 C        -1.176801         0.462942         2.394672
 O        -3.513631         1.712845         1.952791
 C        -4.408550         1.457852         0.881973
 C        -3.569093         0.590950        -0.223676
 C        -2.435213         0.131835         0.705247
 H        -0.361610        -0.606188        -0.647449
 H        -0.389512         2.591735         1.366440
 H        -1.684715         2.432307        -0.095734
 H        -0.428086         0.989635         2.995529
 H        -1.611735        -0.422385         3.014502
 H        -5.258759         0.872966         1.274885
 H        -4.905070         2.407373         0.514417
 H        -4.140359        -0.188259        -0.658187
 H        -3.288302         1.335351        -0.996794
 H        -2.727678        -0.729385         1.329604
