19
Iteration:  3817charge 0 multiplicity 1
 O         0.003492        -0.334432         0.225509
 C        -0.910564         0.479529         0.789549
 C        -1.339513         1.975432         0.585944
 C        -2.248504         1.274993         1.681295
 C        -1.034842         0.660132         2.320319
 O        -3.523636         1.777068         2.037555
 C        -4.391235         1.445936         0.867200
 C        -3.545576         0.564549        -0.145937
 C        -2.408966         0.095145         0.763048
 H        -0.245578        -0.318582        -0.680526
 H        -0.605108         2.583945         1.099785
 H        -1.668105         2.358507        -0.333816
 H        -0.418781         1.249095         2.914210
 H        -0.999770        -0.233678         2.908199
 H        -5.415255         1.014457         1.080357
 H        -4.620838         2.328922         0.305067
 H        -4.105341        -0.387932        -0.387078
 H        -3.137944         1.080335        -1.049326
 H        -2.573924        -0.909695         1.240659
