19
Iteration:   198
 O         0.105623        -0.094416         0.029570
 C        -0.965904         0.409073         0.720295
 C        -1.354094         1.917943         0.865211
 C        -2.358762         1.121862         1.735360
 C        -1.190153         0.335700         2.458837
 O        -3.548821         1.628193         2.059336
 C        -4.156847         1.753430         0.732420
 C        -3.552709         0.616341        -0.176983
 C        -2.490369         0.083566         0.631646
 H         0.983398         0.117613         0.517407
 H        -0.661854         2.705472         1.375661
 H        -1.807786         2.410352         0.093812
 H        -0.573939         1.172293         2.951648
 H        -1.280550        -0.520370         3.071702
 H        -5.256922         1.759117         0.795874
 H        -3.911182         2.755412         0.262669
 H        -4.264589        -0.107073        -0.394257
 H        -3.166939         0.899269        -1.130976
 H        -2.811926        -0.801461         1.062900
