19
Iteration:  3638
 O         0.197075        -0.172617         0.249508
 C        -0.919346         0.342126         0.785784
 C        -1.230190         1.857351         0.690097
 C        -2.275409         1.388376         1.651061
 C        -1.003677         0.483354         2.292813
 O        -3.513240         1.917078         1.966386
 C        -4.489371         1.423652         0.940919
 C        -3.698165         0.606697        -0.187941
 C        -2.510064         0.089865         0.705773
 H         0.137891        -0.996777        -0.331058
 H        -0.498640         2.560386         1.076832
 H        -1.426807         2.317451        -0.273432
 H        -0.203621         1.020688         2.823395
 H        -1.317653        -0.417182         2.777281
 H        -5.040540         0.664904         1.450871
 H        -4.996727         2.312205         0.553820
 H        -4.352420        -0.223128        -0.501595
 H        -3.395310         1.130161        -1.243013
 H        -2.991119        -0.768329         1.309569
