19
Iteration:  2937charge 0 multiplicity 1
 O         0.211832        -0.218786         0.030992
 C        -0.849255         0.409963         0.773631
 C        -1.268382         1.977351         0.700193
 C        -2.339550         1.321639         1.762440
 C        -1.094282         0.518928         2.343276
 O        -3.594294         1.748470         2.035663
 C        -4.340191         1.592144         0.803766
 C        -3.654935         0.535055        -0.085971
 C        -2.475826         0.065086         0.759988
 H        -0.058810        -1.131587        -0.201189
 H        -0.630084         2.577269         1.387292
 H        -1.559672         2.337370        -0.327199
 H        -0.372153         1.145121         2.887551
 H        -1.367116        -0.310910         2.894308
 H        -5.344957         1.319437         0.934955
 H        -4.426579         2.642981         0.307528
 H        -4.330736        -0.298890        -0.196700
 H        -3.460580         0.932315        -1.052748
 H        -2.718808        -0.929229         1.246993
