19
Iteration:   562charge 0 multiplicity 1
 O         0.074526        -0.206825         0.108556
 C        -1.012517         0.478090         0.768373
 C        -1.286772         1.944620         0.817173
 C        -2.340884         1.239316         1.736085
 C        -1.084524         0.489302         2.325732
 O        -3.566010         1.660941         2.108162
 C        -4.227893         1.658794         0.762056
 C        -3.599143         0.457096        -0.228068
 C        -2.473002         0.132781         0.728052
 H         0.700328         0.407323        -0.414175
 H        -0.513705         2.591005         1.340070
 H        -1.564124         2.232278        -0.277459
 H        -0.279255         1.096847         2.882122
 H        -1.155522        -0.473634         2.879797
 H        -5.313951         1.676828         0.991313
 H        -4.043624         2.672707         0.256654
 H        -4.225093        -0.469907        -0.294589
 H        -3.455170         0.874552        -1.208238
 H        -2.661234        -0.884308         1.105906
