19
Iteration:  1373charge 0 multiplicity 1
 O         0.007180        -0.325416         0.174790
 C        -0.938246         0.479317         0.786679
 C        -1.170059         1.972313         0.676002
 C        -2.233525         1.311571         1.694561
 C        -1.105589         0.458019         2.366269
 O        -3.569244         1.846546         2.040685
 C        -4.474915         1.343075         0.923203
 C        -3.585387         0.687668        -0.211201
 C        -2.373986         0.106872         0.609806
 H         0.860776         0.142541         0.045674
 H        -0.350468         2.652957         0.992830
 H        -1.601618         2.353194        -0.239358
 H        -0.339678         1.049314         2.849320
 H        -1.501368        -0.476574         2.981618
 H        -5.165209         0.711511         1.448266
 H        -4.945467         2.242204         0.507949
 H        -4.098463        -0.087140        -0.694752
 H        -3.322102         1.477441        -0.908670
 H        -2.631755        -0.914960         1.061900
