19
Iteration:  4982
 O         0.108109        -0.255393         0.179217
 C        -0.952362         0.373053         0.748242
 C        -1.261522         1.879030         0.570738
 C        -2.244380         1.299851         1.624439
 C        -1.125208         0.653178         2.417285
 O        -3.491121         1.854273         2.035269
 C        -4.432428         1.407211         1.003728
 C        -3.607694         0.665269        -0.152035
 C        -2.472605         0.006287         0.722829
 H         0.042329        -0.425344        -0.751651
 H        -0.381522         2.476889         0.964638
 H        -1.651624         2.174165        -0.421592
 H        -0.171722         1.272617         2.615236
 H        -1.198563        -0.221755         3.126126
 H        -5.275833         0.878803         1.371283
 H        -4.700112         2.317008         0.578010
 H        -4.091392        -0.090766        -0.802178
 H        -3.158894         1.384594        -0.912530
 H        -2.794271        -0.956732         1.221789
