19
Iteration:  4280charge 0 multiplicity 1
 O         0.209290        -0.129838         0.060437
 C        -0.863565         0.376759         0.818211
 C        -1.251661         1.884348         0.639626
 C        -2.335635         1.317923         1.608401
 C        -1.078026         0.482248         2.369297
 O        -3.509904         1.964365         1.965954
 C        -4.449120         1.438955         0.935059
 C        -3.610561         0.527689        -0.141621
 C        -2.546768         0.066443         0.816377
 H         0.353725        -1.111642         0.318748
 H        -0.674588         2.671278         0.995302
 H        -1.693960         2.061429        -0.282158
 H        -0.361451         1.066960         2.907744
 H        -1.373748        -0.404728         2.779037
 H        -5.343429         0.976058         1.440240
 H        -4.974909         2.280594         0.491094
 H        -4.235718        -0.427404        -0.419058
 H        -3.139330         1.112648        -0.986185
 H        -2.779775        -0.897932         1.417831
