19
Iteration:  2793
 O         0.076942        -0.230220         0.116154
 C        -0.948371         0.441917         0.828758
 C        -1.088623         1.844628         0.668886
 C        -2.311506         1.234010         1.727307
 C        -1.121397         0.535046         2.391757
 O        -3.504869         1.832520         1.987849
 C        -4.431009         1.437417         0.895562
 C        -3.658253         0.652219        -0.156858
 C        -2.495845         0.069225         0.656180
 H         0.621572         0.254685        -0.450314
 H        -0.426399         2.561086         1.375357
 H        -1.421881         2.256762        -0.315892
 H        -0.224908         1.036356         2.831442
 H        -1.450595        -0.270517         2.909435
 H        -5.258816         0.841172         1.139474
 H        -5.016940         2.374423         0.615168
 H        -4.057678        -0.092783        -0.762380
 H        -3.276085         1.426267        -0.857506
 H        -2.647817        -0.805064         1.348115
