19
Iteration:  3717
 O         0.124097        -0.258481         0.183724
 C        -0.923099         0.453780         0.771490
 C        -1.345519         2.045327         0.639811
 C        -2.341525         1.243870         1.701450
 C        -0.933927         0.547493         2.346657
 O        -3.588860         1.744769         2.038057
 C        -4.285785         1.671840         0.734008
 C        -3.623731         0.430457        -0.073525
 C        -2.510545        -0.012853         0.819274
 H         0.028104        -0.076531        -0.818268
 H        -0.624586         2.591013         1.196081
 H        -1.824883         2.580876        -0.166282
 H        -0.186959         1.215156         2.797450
 H        -1.095090        -0.449260         2.852843
 H        -5.375761         1.612610         0.887412
 H        -4.168982         2.581617         0.124549
 H        -4.359258        -0.353569        -0.217769
 H        -3.403545         0.753625        -1.199944
 H        -2.646739        -1.003187         1.370324
