19
Iteration:  2705charge 0 multiplicity 1
 O         0.212788        -0.381132         0.191889
 C        -0.888477         0.414778         0.744089
 C        -1.148436         1.980234         0.645678
 C        -2.343291         1.339668         1.623506
 C        -1.200716         0.498603         2.382896
 O        -3.546616         1.854390         2.074868
 C        -4.432078         1.305527         0.955745
 C        -3.649263         0.744014        -0.173007
 C        -2.425741         0.149458         0.622621
 H        -0.055631        -0.241088        -0.687821
 H        -0.194024         2.537624         1.109436
 H        -1.496054         2.422221        -0.329961
 H        -0.598170         1.124901         3.018982
 H        -1.451976        -0.471003         2.726169
 H        -5.013665         0.565856         1.518822
 H        -5.144046         2.230189         0.767690
 H        -4.172615         0.049207        -0.780308
 H        -3.208025         1.448361        -0.868823
 H        -2.925797        -0.631098         1.278406
