19
Iteration:  2091charge 0 multiplicity 1
 O         0.175926        -0.287684         0.225289
 C        -0.934755         0.337671         0.814055
 C        -1.224366         1.934758         0.683315
 C        -2.254699         1.289252         1.676172
 C        -1.099018         0.408866         2.339004
 O        -3.536594         1.918841         1.927479
 C        -4.496821         1.318764         1.026739
 C        -3.612208         0.843135        -0.249896
 C        -2.464353         0.142364         0.671472
 H         0.158272         0.007448        -0.761133
 H        -0.557213         2.644881         1.102975
 H        -1.660509         2.281947        -0.191398
 H        -0.228680         0.759822         2.848333
 H        -1.360466        -0.536613         2.955080
 H        -4.925991         0.374835         1.501872
 H        -5.255128         2.055874         0.631561
 H        -3.937334         0.020271        -0.677936
 H        -3.270267         1.652437        -0.831965
 H        -2.817881        -0.855688         1.085952
