19
Iteration:  3323
 O         0.238233        -0.300283         0.256347
 C        -0.895010         0.437950         0.702799
 C        -1.151114         1.983557         0.717834
 C        -2.241761         1.403659         1.578015
 C        -1.201518         0.452731         2.362477
 O        -3.423473         1.963129         1.944940
 C        -4.516299         1.204402         1.094521
 C        -3.725147         0.677516        -0.209335
 C        -2.539105         0.160104         0.506629
 H         0.176152        -1.148395         0.631384
 H        -0.413933         2.564244         1.424462
 H        -1.545916         2.408042        -0.207049
 H        -0.322318         0.846006         2.942530
 H        -1.841819        -0.412780         2.701908
 H        -4.895385         0.312637         1.780710
 H        -5.134772         2.055479         0.760018
 H        -4.344875         0.016254        -0.751882
 H        -3.457961         1.566004        -0.882664
 H        -2.669620        -0.842784         0.971365
