19
Iteration:  2818
 O         0.070707        -0.335079         0.044886
 C        -0.951125         0.409294         0.782750
 C        -1.269870         1.987806         0.731464
 C        -2.280122         1.312986         1.695848
 C        -1.085358         0.522903         2.360455
 O        -3.571155         1.780753         2.052171
 C        -4.279024         1.496386         0.867442
 C        -3.590892         0.618926        -0.142230
 C        -2.482452         0.084168         0.695374
 H         0.970503         0.025857         0.150332
 H        -0.543423         2.783463         1.165525
 H        -1.984291         2.347832        -0.047262
 H        -0.483664         1.188796         3.037860
 H        -1.469507        -0.407604         2.824421
 H        -5.256941         1.049201         1.039059
 H        -4.622249         2.427630         0.308066
 H        -4.133779        -0.264023        -0.537602
 H        -3.288591         1.187743        -1.012817
 H        -2.580630        -0.868104         1.259712
