19
Iteration:   128charge 0 multiplicity 1
 O         0.083063        -0.183634         0.122489
 C        -0.953037         0.390014         0.840719
 C        -1.237216         1.899688         0.807154
 C        -2.307102         1.116501         1.676256
 C        -1.224576         0.363140         2.332949
 O        -3.545200         1.802438         2.075616
 C        -4.342967         1.534514         0.858531
 C        -3.456524         0.801682        -0.250651
 C        -2.471034         0.058999         0.623909
 H         0.754865         0.597757         0.053563
 H        -0.669585         2.626768         1.349128
 H        -1.549222         2.341636        -0.290342
 H        -0.605876         0.937695         2.996712
 H        -1.504811        -0.577725         2.957611
 H        -5.200826         0.870321         1.132730
 H        -4.739328         2.445022         0.445757
 H        -4.083060         0.120581        -0.901483
 H        -2.994647         1.544230        -0.915897
 H        -2.769371        -0.990961         0.973795
