19
Iteration:  4404
 O         0.236135        -0.114586         0.058483
 C        -0.874858         0.464945         0.678234
 C        -1.226592         1.896755         0.625931
 C        -2.260259         1.244160         1.666723
 C        -1.174437         0.567236         2.415579
 O        -3.569776         1.775334         2.051265
 C        -4.359764         1.685388         0.774989
 C        -3.741089         0.380314        -0.010521
 C        -2.513006         0.047399         0.821587
 H         0.332135        -1.145357         0.126454
 H        -0.415025         2.637618         0.836257
 H        -1.706749         2.370985        -0.270244
 H        -0.521007         1.051712         3.102034
 H        -1.279154        -0.433941         2.883409
 H        -5.368266         1.444398         0.980539
 H        -4.198777         2.662707         0.165824
 H        -4.406462        -0.375899         0.202139
 H        -3.431520         0.552883        -1.150489
 H        -2.529322        -0.965236         1.331337
