19
Iteration:  3591charge 0 multiplicity 1
 O         0.111679        -0.238036         0.129913
 C        -0.907891         0.388013         0.816444
 C        -1.167570         1.919111         0.716413
 C        -2.248071         1.293103         1.588946
 C        -1.265184         0.553444         2.386838
 O        -3.399870         1.968447         1.964657
 C        -4.455459         1.253432         1.018673
 C        -3.715852         0.684591        -0.212058
 C        -2.447250         0.133091         0.615699
 H         0.503439        -0.978592         0.677097
 H        -0.366515         2.623720         1.031720
 H        -1.402268         2.233130        -0.290102
 H        -0.482050         1.132362         2.722143
 H        -1.589498        -0.225404         3.055817
 H        -4.733541         0.328360         1.531269
 H        -5.238211         1.938611         0.859165
 H        -4.121021        -0.204115        -0.826099
 H        -3.435762         1.380901        -0.962540
 H        -2.697706        -0.803156         1.145012
