19
Iteration:  3366
 O         0.154947        -0.245955         0.052660
 C        -0.893569         0.295648         0.824666
 C        -1.197799         2.032284         0.661628
 C        -2.226415         1.309459         1.662744
 C        -1.155707         0.439359         2.415401
 O        -3.565872         1.944071         1.973713
 C        -4.496933         1.331316         0.982579
 C        -3.609629         0.687883        -0.225758
 C        -2.438114         0.115591         0.711932
 H         0.496102        -0.908824         0.651254
 H        -0.417671         2.674348         1.094263
 H        -1.534366         2.232420        -0.319904
 H        -0.413651         1.035459         3.024246
 H        -1.562410        -0.517212         2.890629
 H        -5.104649         0.574978         1.510419
 H        -4.970454         2.211591         0.548599
 H        -4.003659        -0.061207        -0.831593
 H        -3.359959         1.496589        -0.944113
 H        -2.997679        -0.641854         1.183935
