19
Iteration:  2651charge 0 multiplicity 1
 O         0.166007        -0.280673         0.082358
 C        -0.887988         0.455478         0.709843
 C        -1.258386         1.884203         0.760421
 C        -2.332861         1.241445         1.733933
 C        -1.125839         0.438666         2.356629
 O        -3.548324         1.885419         1.999776
 C        -4.425841         1.528329         0.857069
 C        -3.588897         0.577477        -0.145635
 C        -2.474277         0.086967         0.757420
 H         0.541265         0.228599        -0.615903
 H        -0.474059         2.511870         1.350709
 H        -1.451046         2.426313        -0.182657
 H        -0.344518         1.095694         2.841511
 H        -1.380846        -0.306567         3.078324
 H        -5.315177         1.130299         1.223730
 H        -4.873238         2.550376         0.537582
 H        -4.229459        -0.198728        -0.475184
 H        -3.179224         1.011025        -1.047080
 H        -2.711485        -0.882701         1.253450
