19
Iteration:  3703charge 0 multiplicity 1
 O         0.020563        -0.268879         0.164890
 C        -1.000826         0.472454         0.711979
 C        -1.287118         1.890434         0.736145
 C        -2.232238         1.284703         1.787494
 C        -0.975734         0.650289         2.311187
 O        -3.647688         1.707713         2.103244
 C        -4.292876         1.580394         0.667348
 C        -3.624500         0.466462        -0.151078
 C        -2.398774         0.125927         0.817744
 H         0.005457        -0.365664        -0.752560
 H        -0.510320         2.614614         0.995228
 H        -1.678760         2.214741        -0.262980
 H        -0.210769         1.217815         2.810422
 H        -0.975713        -0.256255         2.856661
 H        -5.336370         1.412079         0.903892
 H        -4.117556         2.618421         0.277873
 H        -4.234085        -0.420574        -0.267346
 H        -3.192748         0.908427        -1.150655
 H        -2.641609        -0.819360         1.375348
