19
Iteration:  2931
 O         0.254232        -0.187338         0.050544
 C        -0.935961         0.382936         0.740567
 C        -1.275188         1.985397         0.741980
 C        -2.325159         1.292294         1.697509
 C        -1.094999         0.512887         2.357911
 O        -3.614665         1.784234         2.029572
 C        -4.241177         1.624972         0.823872
 C        -3.715414         0.510839        -0.124649
 C        -2.447188         0.041968         0.789992
 H        -0.126345        -1.104213        -0.218142
 H        -0.621055         2.626484         1.316773
 H        -1.684865         2.274431        -0.218856
 H        -0.338241         1.187415         2.838775
 H        -1.212294        -0.502177         2.966946
 H        -5.391285         1.390030         0.997636
 H        -4.533671         2.577784         0.447306
 H        -4.445424        -0.367792        -0.191303
 H        -3.452990         0.859339        -1.168574
 H        -2.662088        -0.903615         1.255732
