19
Iteration:  3959
 O         0.085754        -0.328794         0.153783
 C        -0.974675         0.473234         0.744806
 C        -1.244841         2.001614         0.544672
 C        -2.271148         1.295858         1.694818
 C        -1.089457         0.680782         2.327147
 O        -3.549917         1.893281         2.074389
 C        -4.379444         1.296925         0.882945
 C        -3.568899         0.613552        -0.140146
 C        -2.459473         0.082829         0.732249
 H         0.239464        -1.016926         0.757288
 H        -0.511856         2.529072         1.126884
 H        -1.580386         2.361560        -0.420067
 H        -0.347296         1.154654         2.862616
 H        -1.162358        -0.321675         2.702869
 H        -5.040345         0.449031         1.398002
 H        -4.966614         2.185020         0.452970
 H        -4.142404        -0.284484        -0.626190
 H        -3.135492         1.353148        -0.890228
 H        -2.736251        -0.971457         1.180103
