19
Iteration:  1498
 O         0.121636        -0.239714         0.081592
 C        -0.920481         0.382822         0.772372
 C        -1.322961         1.930052         0.602901
 C        -2.284178         1.280771         1.720346
 C        -1.088028         0.530215         2.409699
 O        -3.554025         1.659979         2.111005
 C        -4.365820         1.531446         0.824037
 C        -3.606145         0.655316        -0.242792
 C        -2.478699         0.108839         0.754185
 H         1.022777         0.037770         0.476443
 H        -0.512070         2.579606         1.028748
 H        -1.834979         2.208212        -0.397545
 H        -0.308311         1.125090         2.997855
 H        -1.386271        -0.298386         2.987770
 H        -5.378649         1.461875         1.141905
 H        -4.189141         2.540285         0.498811
 H        -4.326160        -0.162521        -0.611522
 H        -3.176953         1.403512        -0.958353
 H        -2.864221        -0.866334         1.298277
