19
Iteration:   824charge 0 multiplicity 1
 O         0.177939        -0.170795         0.071700
 C        -0.951752         0.410968         0.749200
 C        -1.471620         1.920393         0.705748
 C        -2.361203         1.136787         1.700760
 C        -1.155585         0.498157         2.395533
 O        -3.494407         1.782992         2.200594
 C        -4.186471         1.731033         0.719400
 C        -3.644342         0.533988        -0.176666
 C        -2.440627        -0.062423         0.721297
 H         0.942639         0.416733         0.151699
 H        -0.888502         2.777633         1.207007
 H        -2.018866         2.184470        -0.170393
 H        -0.477670         1.238538         2.968305
 H        -0.973123        -0.465030         2.785985
 H        -5.214329         1.597525         1.019265
 H        -4.017936         2.565220         0.020979
 H        -4.490662        -0.216528        -0.557040
 H        -3.265755         0.958156        -1.116117
 H        -2.658574        -1.088515         1.191246
