19
Iteration:  2132
 O         0.165394        -0.360450         0.153815
 C        -0.913900         0.452664         0.747153
 C        -1.199452         1.993994         0.793807
 C        -2.310016         1.326683         1.609289
 C        -1.224651         0.548698         2.356094
 O        -3.504193         1.764441         2.018649
 C        -4.476760         1.483045         0.965279
 C        -3.550697         0.646763        -0.133680
 C        -2.364715         0.097187         0.573285
 H         0.031217        -0.548669        -0.740882
 H        -0.402144         2.457286         1.393578
 H        -1.496216         2.522693        -0.127790
 H        -0.467097         1.005782         2.933946
 H        -1.542181        -0.522823         2.793799
 H        -5.298361         0.794111         1.334979
 H        -4.994014         2.386380         0.650158
 H        -4.371886        -0.161616        -0.588093
 H        -3.432242         1.505330        -0.885936
 H        -2.777901        -0.695030         1.178384
