19
Iteration:   655
 O         0.119245        -0.405394         0.191054
 C        -0.851679         0.441430         0.777426
 C        -1.263653         2.038842         0.749437
 C        -2.276250         1.389588         1.683657
 C        -1.033440         0.472286         2.272216
 O        -3.573807         1.751571         2.080282
 C        -4.499448         1.369683         0.933531
 C        -3.621737         0.703590        -0.264350
 C        -2.468125         0.176206         0.609354
 H         0.965352        -0.089528         0.434996
 H        -0.449283         2.712098         1.062855
 H        -1.624778         2.234452        -0.257286
 H        -0.361727         0.981833         2.857474
 H        -1.268412        -0.481834         2.806275
 H        -5.255972         0.717395         1.383853
 H        -4.987946         2.241538         0.550114
 H        -4.229240         0.029299        -0.828052
 H        -3.217346         1.552116        -0.952814
 H        -2.792065        -0.743743         1.102202
