19
Iteration:   502
 O         0.203196        -0.166381         0.246467
 C        -1.007055         0.403096         0.765540
 C        -1.343202         1.966257         0.688255
 C        -2.311220         1.228343         1.630745
 C        -1.052296         0.437318         2.322218
 O        -3.504339         1.670254         2.048673
 C        -4.274856         1.604802         0.797351
 C        -3.679241         0.671039        -0.160690
 C        -2.539753         0.000691         0.739639
 H         0.534279         0.571071        -0.333908
 H        -0.733701         2.615682         1.306267
 H        -1.602405         2.373727        -0.229185
 H        -0.219554         0.979618         2.720368
 H        -1.257156        -0.526813         2.747322
 H        -5.275174         1.366633         1.150529
 H        -4.225717         2.558548         0.356901
 H        -4.239952        -0.222633        -0.354725
 H        -3.490792         1.163885        -1.147415
 H        -2.843224        -0.891800         1.305968
