19
Iteration:  4181charge 0 multiplicity 1
 O         0.134638        -0.304948         0.077839
 C        -0.898153         0.401329         0.789153
 C        -1.208765         1.960461         0.635552
 C        -2.225913         1.361609         1.649248
 C        -1.128278         0.695534         2.384989
 O        -3.537302         1.911817         1.946896
 C        -4.418017         1.285688         0.940685
 C        -3.580536         0.616368        -0.127729
 C        -2.518906         0.048417         0.807999
 H        -0.234009        -1.143916        -0.197330
 H        -0.597390         2.674950         1.099655
 H        -1.439511         2.422874        -0.283822
 H        -0.470536         1.348691         2.923226
 H        -1.431893        -0.166497         2.845269
 H        -4.785602         0.312104         1.458852
 H        -5.246833         1.976384         0.758883
 H        -4.246664        -0.100791        -0.817453
 H        -3.205677         1.249589        -0.953548
 H        -2.813264        -0.909823         1.443478
