19
Iteration:  3259charge 0 multiplicity 1
 O         0.093463        -0.223822        -0.003165
 C        -0.894722         0.428486         0.781660
 C        -1.252235         1.916301         0.703278
 C        -2.302107         1.261648         1.714937
 C        -1.121386         0.539763         2.414286
 O        -3.560657         1.827997         1.991589
 C        -4.374254         1.472531         0.878663
 C        -3.488165         0.626757        -0.148065
 C        -2.495725         0.093304         0.754650
 H         0.011290        -1.147182         0.341501
 H        -0.520401         2.619960         1.309803
 H        -1.590651         2.428630        -0.220073
 H        -0.403365         1.155746         2.976180
 H        -1.383173        -0.406059         2.847813
 H        -5.238026         0.967325         1.257677
 H        -4.953783         2.289965         0.413481
 H        -4.112493        -0.189101        -0.487646
 H        -3.007817         1.252438        -1.004975
 H        -2.844136        -0.900598         1.187322
