19
Iteration:  3492
 O         0.251214        -0.213873         0.110116
 C        -0.853338         0.425958         0.742219
 C        -1.304713         1.850598         0.688372
 C        -2.326788         1.234131         1.737411
 C        -1.105300         0.517428         2.349283
 O        -3.569683         1.779689         2.017015
 C        -4.321907         1.703494         0.818790
 C        -3.665380         0.478833        -0.146173
 C        -2.548692         0.026314         0.831471
 H         0.663987         0.236530        -0.594312
 H        -0.622752         2.631402         1.069240
 H        -1.822520         2.164020        -0.272989
 H        -0.406550         1.065589         2.878131
 H        -1.404076        -0.350504         2.900405
 H        -5.360077         1.553965         1.033221
 H        -4.377394         2.592768         0.230724
 H        -4.559983        -0.171549        -0.400873
 H        -3.266397         0.995269        -0.937932
 H        -2.893844        -0.821627         1.443604
