19
Iteration:  4575
 O         0.100410        -0.336195         0.148941
 C        -0.834375         0.402721         0.864127
 C        -1.249621         1.967836         0.626178
 C        -2.222332         1.327565         1.561776
 C        -1.111863         0.645637         2.339592
 O        -3.544264         1.926637         1.995754
 C        -4.386164         1.284459         0.973156
 C        -3.613391         0.676062        -0.142627
 C        -2.461205         0.014763         0.729532
 H        -0.384170        -0.861288        -0.454861
 H        -0.617791         2.800874         0.990572
 H        -1.552882         2.041566        -0.456736
 H        -0.466179         1.423903         2.910845
 H        -1.390746        -0.237056         2.966280
 H        -4.927977         0.493281         1.605699
 H        -5.115401         2.063344         0.562572
 H        -4.329511         0.120638        -0.821666
 H        -3.427090         1.428517        -0.794705
 H        -2.792825        -0.749354         1.392240
