19
Iteration:  4947
 O         0.136803        -0.305448         0.183965
 C        -0.872729         0.453338         0.766005
 C        -1.249517         1.901862         0.577028
 C        -2.272664         1.286390         1.586758
 C        -1.068391         0.506252         2.369081
 O        -3.516656         1.882378         2.016393
 C        -4.463569         1.485455         0.955162
 C        -3.691194         0.585071        -0.118331
 C        -2.468163         0.062911         0.743550
 H         0.714583         0.301434        -0.229715
 H        -0.479149         2.666496         0.856334
 H        -1.621052         2.187042        -0.386513
 H        -0.179860         1.011204         2.741627
 H        -1.226578        -0.437734         2.940775
 H        -5.364648         1.075772         1.497338
 H        -4.852134         2.414068         0.445322
 H        -4.288942        -0.368719        -0.460860
 H        -3.490218         1.173953        -0.970770
 H        -2.762584        -0.834611         1.446834
