19
Iteration:  1470
 O         0.054118        -0.315823         0.192337
 C        -0.925949         0.451120         0.706551
 C        -1.295512         1.970847         0.701570
 C        -2.325202         1.194596         1.678278
 C        -1.085836         0.543843         2.309942
 O        -3.568644         1.732086         2.035845
 C        -4.365260         1.539436         0.896705
 C        -3.554097         0.644980        -0.135552
 C        -2.401347         0.091247         0.631036
 H         0.950175         0.052822         0.245573
 H        -0.516501         2.505719         1.197496
 H        -1.743331         2.518624        -0.125121
 H        -0.543191         1.328525         2.778698
 H        -1.241539        -0.453384         2.907235
 H        -5.332105         1.088173         1.316923
 H        -4.471682         2.619660         0.545968
 H        -4.241406        -0.116573        -0.281631
 H        -3.345479         1.234222        -1.053974
 H        -2.512939        -0.883039         0.988602
