19
Iteration:  2062charge 0 multiplicity 1
 O         0.106428        -0.291042         0.175407
 C        -0.924227         0.409892         0.772498
 C        -1.093222         1.947437         0.753822
 C        -2.286846         1.268583         1.595941
 C        -1.268531         0.502161         2.352233
 O        -3.421984         1.877854         1.984849
 C        -4.474855         1.347044         1.008211
 C        -3.685901         0.731193        -0.211486
 C        -2.441274         0.078412         0.639824
 H         0.548764         0.218657        -0.480235
 H        -0.381183         2.535336         1.432300
 H        -1.461836         2.535100        -0.156946
 H        -0.474595         1.087096         2.987976
 H        -1.385858        -0.447225         2.724681
 H        -5.101153         0.567173         1.458676
 H        -5.184849         2.044200         0.545116
 H        -4.103501        -0.282023        -0.705658
 H        -3.291520         1.559250        -0.885995
 H        -2.679351        -0.826533         1.218205
