19
Iteration:  1423charge 0 multiplicity 1
 O         0.027136        -0.185864         0.020082
 C        -1.008671         0.417145         0.764917
 C        -1.138004         1.847030         0.754867
 C        -2.273755         1.291291         1.696800
 C        -1.149411         0.505638         2.434348
 O        -3.571902         1.864943         1.949181
 C        -4.420207         1.418375         0.875321
 C        -3.546098         0.612803        -0.099370
 C        -2.432804         0.088134         0.722287
 H         0.800407         0.252709         0.306933
 H        -0.362750         2.430725         1.222134
 H        -1.356493         2.250895        -0.295497
 H        -0.252249         0.907277         2.921632
 H        -1.405694        -0.445707         2.725495
 H        -5.216853         0.842167         1.419215
 H        -4.699839         2.340363         0.305350
 H        -4.045550        -0.301208        -0.599435
 H        -3.157433         1.364468        -0.856455
 H        -2.633893        -0.872328         1.182893
