19
Iteration:  2307
 O         0.194891        -0.268846         0.165791
 C        -0.896683         0.426583         0.742405
 C        -1.240647         1.881297         0.674421
 C        -2.308112         1.221600         1.671473
 C        -1.111672         0.551421         2.302994
 O        -3.595196         1.719754         2.106033
 C        -4.358033         1.576171         0.899757
 C        -3.584468         0.652326        -0.174723
 C        -2.479258         0.079582         0.724482
 H        -0.057613        -0.507674        -0.711713
 H        -0.501385         2.544911         1.233319
 H        -1.673407         2.500873        -0.154748
 H        -0.521665         1.307935         2.832669
 H        -1.577224        -0.384179         2.809197
 H        -5.370083         1.213149         1.066286
 H        -4.412716         2.510143         0.429245
 H        -4.365263         0.094790        -0.766756
 H        -3.193378         1.338891        -0.882243
 H        -2.832459        -0.712923         1.348813
