19
Iteration:  1097
 O         0.116042        -0.249385         0.084287
 C        -0.899099         0.387871         0.842078
 C        -1.344543         1.967039         0.623324
 C        -2.322439         1.223281         1.696164
 C        -1.162039         0.541229         2.442551
 O        -3.454067         1.699965         2.131272
 C        -4.302310         1.586560         0.765475
 C        -3.584831         0.626044        -0.244644
 C        -2.531191         0.058751         0.741378
 H         0.736175         0.435615        -0.017607
 H        -0.649335         2.805910         1.031169
 H        -1.667118         2.207086        -0.407130
 H        -0.457815         1.208660         3.078866
 H        -1.436474        -0.438807         2.846893
 H        -5.240511         1.211182         1.192194
 H        -4.464444         2.663781         0.486771
 H        -4.295523        -0.238136        -0.451348
 H        -3.068875         0.916368        -1.168111
 H        -2.952951        -0.881934         1.201450
