19
Iteration:  2997charge 0 multiplicity 1
 O         0.152349        -0.248870         0.067793
 C        -0.885880         0.444731         0.797133
 C        -1.243015         1.890189         0.650173
 C        -2.279358         1.239417         1.743662
 C        -1.087404         0.497274         2.337718
 O        -3.560517         1.867433         1.974040
 C        -4.491040         1.468046         0.912449
 C        -3.554066         0.650400        -0.185962
 C        -2.485827         0.077535         0.754880
 H         0.392686        -1.020121         0.533327
 H        -0.579952         2.679728         1.052868
 H        -1.596167         2.263904        -0.310875
 H        -0.461755         1.273727         2.876826
 H        -1.164876        -0.484809         2.911877
 H        -5.407567         0.829648         1.497981
 H        -4.981015         2.444539         0.663288
 H        -4.214242         0.044265        -0.864786
 H        -3.041438         1.487111        -0.803837
 H        -2.757437        -0.826841         1.281402
