19
Iteration:  2871charge 0 multiplicity 1
 O         0.229902        -0.135680        -0.001823
 C        -0.991443         0.360315         0.728599
 C        -1.343224         1.884669         0.676247
 C        -2.317336         1.235033         1.712700
 C        -1.081887         0.578234         2.436122
 O        -3.549714         1.642169         2.106461
 C        -4.294272         1.723483         0.739389
 C        -3.690776         0.567772        -0.144458
 C        -2.492003         0.053841         0.820637
 H         0.467483        -0.918549         0.537796
 H        -0.588428         2.605699         1.220951
 H        -1.817807         2.183602        -0.311544
 H        -0.392692         1.376794         2.778643
 H        -1.279832        -0.274022         2.936519
 H        -5.303656         1.623408         1.029426
 H        -3.850087         2.706019         0.303419
 H        -4.289931        -0.306630        -0.257922
 H        -3.392620         0.894803        -1.142931
 H        -2.569952        -1.038652         1.233171
