19
Iteration:  1539
 O         0.021286        -0.211827         0.054019
 C        -0.865515         0.480439         0.820632
 C        -1.305822         2.002855         0.812846
 C        -2.270200         1.196309         1.687390
 C        -1.042157         0.420200         2.386169
 O        -3.521852         1.781495         2.026925
 C        -4.290230         1.613685         0.770475
 C        -3.715562         0.457106        -0.164639
 C        -2.507356         0.079670         0.706638
 H         0.858796         0.176158         0.127196
 H        -0.555294         2.696751         1.326276
 H        -1.748772         2.516770        -0.045801
 H        -0.485018         1.275142         2.932933
 H        -1.322386        -0.583178         2.714047
 H        -5.317410         1.447511         1.074220
 H        -3.997384         2.471820         0.133802
 H        -4.231100        -0.481534        -0.472379
 H        -3.399427         1.058892        -0.965045
 H        -2.501582        -0.904553         1.279295
