19
Iteration:  1962
 O         0.039409        -0.286168         0.026187
 C        -0.899451         0.434626         0.748803
 C        -1.230998         1.998087         0.735212
 C        -2.336164         1.290282         1.713230
 C        -1.078792         0.513368         2.338995
 O        -3.617361         1.667692         2.033096
 C        -4.320915         1.624693         0.817643
 C        -3.588850         0.553796        -0.068412
 C        -2.419790         0.047477         0.767529
 H         0.935588         0.001614         0.198593
 H        -0.579429         2.799749         1.201063
 H        -1.669671         2.591839        -0.079039
 H        -0.444472         1.119321         2.966551
 H        -1.375211        -0.442720         2.767198
 H        -5.381447         1.543390         0.869380
 H        -4.161396         2.574959         0.265675
 H        -4.385763        -0.159147        -0.468358
 H        -3.272893         0.994737        -1.040868
 H        -2.588871        -0.890487         1.369134
