19
Iteration:  1970
 O         0.039769        -0.290263        -0.002569
 C        -0.863452         0.460641         0.751088
 C        -1.260730         1.966540         0.723118
 C        -2.246919         1.291142         1.688589
 C        -1.139162         0.540366         2.407312
 O        -3.663020         1.682487         2.074223
 C        -4.306457         1.657064         0.806162
 C        -3.605597         0.534248        -0.151738
 C        -2.428084         0.053226         0.781368
 H         0.916633         0.046680         0.311407
 H        -0.566385         2.598503         1.191337
 H        -1.663795         2.269757        -0.210844
 H        -0.313874         1.037606         2.838885
 H        -1.168916        -0.577126         2.796220
 H        -5.403389         1.357400         1.052313
 H        -4.416740         2.781447         0.478145
 H        -4.248251        -0.234758        -0.483668
 H        -3.094566         1.107209        -0.934745
 H        -2.537888        -0.910654         1.375171
