19
Iteration:  2292charge 0 multiplicity 1
 O         0.187915        -0.176894         0.154718
 C        -0.944119         0.389227         0.798990
 C        -1.296844         1.922761         0.631871
 C        -2.299600         1.253152         1.673741
 C        -1.194499         0.487131         2.379869
 O        -3.495404         1.698753         2.110818
 C        -4.314822         1.627984         0.842326
 C        -3.611609         0.652271        -0.154518
 C        -2.527272         0.042041         0.724799
 H         0.019239        -0.365198        -0.772366
 H        -0.554116         2.685769         0.981165
 H        -1.544100         2.138817        -0.430008
 H        -0.268661         1.032981         3.042233
 H        -1.386461        -0.494515         2.871016
 H        -5.359795         1.323906         1.156604
 H        -4.354463         2.682403         0.369390
 H        -4.153954        -0.127059        -0.615337
 H        -3.125664         1.049748        -1.146647
 H        -2.749417        -0.975428         1.177335
