19
Iteration:  1030
 O         0.071451        -0.298161        -0.021547
 C        -0.971110         0.397282         0.779732
 C        -1.206134         1.934445         0.730288
 C        -2.353575         1.310775         1.701520
 C        -1.226334         0.532405         2.437592
 O        -3.555019         1.904341         2.004943
 C        -4.347405         1.345093         0.951752
 C        -3.508163         0.663007        -0.139061
 C        -2.395893         0.125449         0.644356
 H         0.952984        -0.141179         0.475855
 H        -0.282806         2.558106         1.107387
 H        -1.513736         2.197189        -0.262507
 H        -0.396846         1.073382         3.110691
 H        -1.575123        -0.374053         2.887132
 H        -5.085265         0.593902         1.369916
 H        -4.881003         2.168064         0.417257
 H        -4.017081        -0.225680        -0.693701
 H        -3.372022         1.463124        -0.828241
 H        -2.658222        -0.912102         1.036445
