19
Iteration:  3046charge 0 multiplicity 1
 O         0.251642        -0.215879         0.182046
 C        -0.879597         0.449232         0.697004
 C        -1.111386         1.942087         0.705278
 C        -2.283597         1.303446         1.540936
 C        -1.285438         0.469906         2.383418
 O        -3.448544         1.990790         1.937216
 C        -4.423082         1.340229         1.108239
 C        -3.697161         0.562086        -0.199707
 C        -2.536459         0.107101         0.628885
 H         0.110949        -1.225235         0.047520
 H        -0.454836         2.571351         1.333608
 H        -1.451810         2.509008        -0.213768
 H        -0.517003         0.962107         3.152390
 H        -1.735932        -0.442585         2.793627
 H        -5.118890         0.574826         1.686658
 H        -5.131080         2.157548         0.860623
 H        -4.255072        -0.272191        -0.602551
 H        -3.584814         1.340095        -0.870544
 H        -2.761163        -0.851337         1.161204
