19
Iteration:  3126charge 0 multiplicity 1
 O         0.021095        -0.270336         0.067643
 C        -0.888247         0.480297         0.831205
 C        -1.233184         1.985102         0.688534
 C        -2.257978         1.252504         1.643091
 C        -1.068479         0.581660         2.467313
 O        -3.493547         1.747041         2.047552
 C        -4.455960         1.475752         0.796484
 C        -3.620847         0.573579        -0.173610
 C        -2.439614         0.138759         0.686376
 H         0.495932        -1.041302         0.487447
 H        -0.383725         2.683102         1.019666
 H        -1.550010         2.250431        -0.361242
 H        -0.353502         1.068282         3.031079
 H        -1.382202        -0.398951         2.874923
 H        -5.342344         0.999193         1.341022
 H        -4.774426         2.553451         0.449623
 H        -4.247468        -0.225314        -0.606897
 H        -3.319830         1.169613        -1.085704
 H        -2.675950        -0.737852         1.365631
