19
Iteration:  4784charge 0 multiplicity 1
 O         0.136413        -0.219346         0.134378
 C        -0.906042         0.411842         0.800965
 C        -1.400146         1.866895         0.545197
 C        -2.268242         1.250230         1.667918
 C        -1.119358         0.606739         2.379408
 O        -3.442309         1.825473         1.997273
 C        -4.314613         1.674704         0.881248
 C        -3.748323         0.455390        -0.056026
 C        -2.428945        -0.063081         0.738472
 H         0.824476         0.500914        -0.143396
 H        -0.710309         2.695703         0.953839
 H        -1.785492         2.187474        -0.451426
 H        -0.378886         1.232682         2.991466
 H        -1.207110        -0.293421         3.107104
 H        -5.285845         1.381643         1.263558
 H        -4.411014         2.598379         0.329226
 H        -4.379757        -0.506786        -0.316930
 H        -3.426802         0.745427        -1.023776
 H        -2.778855        -0.880440         1.332699
