19
Iteration:  4417
 O         0.183514        -0.160927         0.034149
 C        -0.865065         0.459705         0.764374
 C        -1.258723         1.978599         0.670908
 C        -2.287553         1.306614         1.648774
 C        -1.094465         0.522721         2.382498
 O        -3.541143         1.747428         1.988437
 C        -4.324505         1.609890         0.777650
 C        -3.766318         0.396941         0.012529
 C        -2.454980         0.041264         0.771754
 H         0.249465        -0.925082         0.570153
 H        -0.543559         2.681133         1.264206
 H        -1.662069         2.279507        -0.365622
 H        -0.321571         1.192807         2.813593
 H        -1.553042        -0.381709         2.938124
 H        -5.401943         1.605558         1.128144
 H        -4.273373         2.631169         0.194189
 H        -4.436862        -0.410885        -0.097341
 H        -3.640530         0.680291        -1.031138
 H        -2.732389        -0.726378         1.509618
