19
Iteration:  1139charge 0 multiplicity 1
 O         0.114604        -0.274705         0.000116
 C        -0.880465         0.468656         0.774177
 C        -1.239327         1.968416         0.763315
 C        -2.324078         1.171749         1.751469
 C        -1.034591         0.499718         2.409708
 O        -3.631716         1.743292         2.109727
 C        -4.253168         1.651779         0.657772
 C        -3.651578         0.506212        -0.192930
 C        -2.542714         0.076966         0.827128
 H         0.957955         0.197960        -0.057558
 H        -0.781585         2.734092         1.431607
 H        -1.663614         2.560191         0.005443
 H        -0.382321         1.377590         2.803308
 H        -1.173842        -0.460552         2.805127
 H        -5.313606         1.322369         0.792862
 H        -4.330128         2.680695         0.220410
 H        -4.482091        -0.266715        -0.273756
 H        -3.406307         0.877212        -1.120733
 H        -2.706487        -0.855540         1.383136
