19
Iteration:   517
 O         0.215151        -0.146941         0.228929
 C        -0.906332         0.376851         0.759271
 C        -1.353888         1.833783         0.616901
 C        -2.329179         1.160214         1.722452
 C        -1.142878         0.536355         2.278729
 O        -3.567541         1.669715         2.205662
 C        -4.253923         1.709092         0.839382
 C        -3.624898         0.584184        -0.217571
 C        -2.511935         0.050963         0.649704
 H         0.721048         0.565558        -0.288683
 H        -0.574879         2.544895         0.930870
 H        -1.924303         2.094078        -0.391526
 H        -0.443358         1.204700         2.824769
 H        -1.293131        -0.398956         2.948314
 H        -5.330720         1.522514         0.961660
 H        -4.225915         2.796662         0.478056
 H        -4.462622        -0.042463        -0.515226
 H        -3.214703         1.048988        -1.131504
 H        -2.799341        -0.931897         1.090840
