19
Iteration:  2297charge 0 multiplicity 1
 O         0.205045        -0.201424         0.158733
 C        -0.926214         0.383489         0.756087
 C        -1.274763         1.932313         0.625770
 C        -2.300448         1.271739         1.651584
 C        -1.164849         0.503446         2.377879
 O        -3.528524         1.703403         2.134142
 C        -4.299304         1.599586         0.819072
 C        -3.595462         0.627884        -0.156064
 C        -2.559468         0.055500         0.741390
 H        -0.088434        -0.387117        -0.760268
 H        -0.592138         2.648990         1.112922
 H        -1.564757         2.178933        -0.400446
 H        -0.568663         1.010918         3.006414
 H        -1.378078        -0.443488         2.927121
 H        -5.267504         1.342039         1.184429
 H        -4.334714         2.584794         0.468437
 H        -4.272392        -0.125089        -0.681319
 H        -3.181016         1.374486        -0.808873
 H        -2.789248        -0.910182         1.120466
