19
Iteration:   200
 O         0.131572        -0.080990         0.027227
 C        -0.959614         0.385045         0.717903
 C        -1.376663         1.909331         0.876445
 C        -2.371706         1.108891         1.713978
 C        -1.192379         0.342561         2.462711
 O        -3.538419         1.646466         2.068196
 C        -4.150391         1.759846         0.725842
 C        -3.555924         0.625016        -0.153516
 C        -2.503168         0.069373         0.632014
 H         1.020872         0.095612         0.531663
 H        -0.727744         2.679122         1.359940
 H        -1.771849         2.415552         0.062993
 H        -0.565881         1.210967         2.886039
 H        -1.269838        -0.571105         3.067809
 H        -5.241859         1.729823         0.752941
 H        -3.960618         2.815356         0.272859
 H        -4.308767        -0.140090        -0.456481
 H        -3.189927         0.968893        -1.175595
 H        -2.825048        -0.865615         1.098451
