19
Iteration:   865charge 0 multiplicity 1
 O         0.093912        -0.230643        -0.097862
 C        -0.878863         0.469921         0.749146
 C        -1.199930         2.001249         0.851042
 C        -2.307829         1.294100         1.783033
 C        -1.158678         0.505440         2.387817
 O        -3.602907         1.637373         2.048358
 C        -4.287531         1.661964         0.644489
 C        -3.690271         0.469416        -0.096718
 C        -2.470668         0.039006         0.837999
 H         0.928864         0.158229         0.168619
 H        -0.443789         2.568550         1.466672
 H        -1.517413         2.550092        -0.140557
 H        -0.507875         1.233414         2.922647
 H        -1.285149        -0.443195         2.839678
 H        -5.360768         1.718940         0.881758
 H        -3.997687         2.689879         0.413749
 H        -4.475496        -0.365941        -0.302879
 H        -3.275106         0.825455        -1.082820
 H        -2.667964        -0.949267         1.372279
