19
Iteration:   630
 O         0.054848        -0.223630         0.069751
 C        -0.979636         0.453363         0.728972
 C        -1.229696         1.874536         0.655055
 C        -2.311794         1.273374         1.735983
 C        -1.209998         0.563087         2.428112
 O        -3.496898         1.732994         2.039820
 C        -4.364646         1.445730         0.877567
 C        -3.527403         0.728201        -0.162918
 C        -2.441121         0.004996         0.673024
 H         0.864561         0.243581         0.382871
 H        -0.484249         2.575930         1.282439
 H        -1.336092         2.274089        -0.327248
 H        -0.412354         1.084383         3.021531
 H        -1.464214        -0.302045         2.976053
 H        -5.197288         0.809713         1.263935
 H        -4.866376         2.373663         0.517354
 H        -4.272330         0.112078        -0.721098
 H        -2.998977         1.298399        -0.852093
 H        -2.657345        -0.947277         1.103958
