19
Iteration:  4285charge 0 multiplicity 1
 O         0.211274        -0.154691         0.040052
 C        -0.897155         0.382625         0.820748
 C        -1.299768         1.880562         0.671436
 C        -2.311771         1.323656         1.606379
 C        -1.113360         0.524561         2.355213
 O        -3.548076         1.982060         2.003941
 C        -4.465627         1.474469         0.955383
 C        -3.571706         0.464924        -0.166429
 C        -2.455017         0.030578         0.786296
 H         0.129477        -1.063562         0.244254
 H        -0.515426         2.644883         1.109919
 H        -1.585455         2.189690        -0.443873
 H        -0.229573         1.025894         2.874760
 H        -1.413230        -0.476004         2.950405
 H        -5.316475         1.057554         1.468341
 H        -4.951840         2.411102         0.416283
 H        -4.169252        -0.348541        -0.339186
 H        -3.142367         1.033214        -0.986760
 H        -2.704055        -0.878548         1.283559
