19
Iteration:  3887charge 0 multiplicity 1
 O         0.187423        -0.178481         0.194238
 C        -0.977211         0.369775         0.756984
 C        -1.269300         1.922030         0.671532
 C        -2.287617         1.333162         1.593520
 C        -1.139339         0.500586         2.289706
 O        -3.422919         1.995642         1.856208
 C        -4.420629         1.281279         1.040524
 C        -3.672736         0.597160        -0.108828
 C        -2.467712         0.064074         0.682547
 H         0.654865        -0.792787         0.773738
 H        -0.473274         2.457966         1.215502
 H        -1.617693         2.451537        -0.275603
 H        -0.302280         1.011913         2.889828
 H        -1.488614        -0.313046         2.993609
 H        -5.109263         0.719931         1.681070
 H        -5.114160         2.048540         0.599208
 H        -4.313746        -0.192771        -0.502630
 H        -3.510648         1.336690        -0.833217
 H        -2.799862        -0.811693         1.161604
