19
Iteration:  4434charge 0 multiplicity 1
 O         0.036144        -0.177227         0.116272
 C        -0.899494         0.399353         0.751832
 C        -1.280063         1.947308         0.701670
 C        -2.323201         1.268977         1.680828
 C        -1.038845         0.627868         2.342940
 O        -3.506726         1.810170         2.037980
 C        -4.326504         1.575986         0.817600
 C        -3.674467         0.424958        -0.097585
 C        -2.454050         0.057057         0.712085
 H         0.538209        -0.814580         0.589277
 H        -0.551978         2.576994         1.115763
 H        -1.700165         2.290603        -0.212329
 H        -0.282076         1.299158         2.772901
 H        -1.051132        -0.292876         2.858480
 H        -5.328388         1.281191         1.062791
 H        -4.262411         2.566147         0.409823
 H        -4.313809        -0.525374        -0.127112
 H        -3.544592         0.661021        -1.263925
 H        -2.681786        -0.983537         1.047691
