19
Iteration:  3274
 O         0.137288        -0.199746         0.097249
 C        -0.970577         0.349145         0.755613
 C        -1.181270         1.901492         0.754978
 C        -2.287666         1.272381         1.656495
 C        -1.146344         0.572104         2.369989
 O        -3.482155         1.879362         2.004451
 C        -4.477571         1.356636         0.880934
 C        -3.620304         0.723231        -0.186018
 C        -2.451059         0.052952         0.747957
 H         0.224068        -1.211429         0.007184
 H        -0.383183         2.426024         1.139062
 H        -1.603184         2.234317        -0.197013
 H        -0.454794         1.335034         2.784757
 H        -1.343063        -0.310127         2.997330
 H        -5.036179         0.501469         1.285444
 H        -4.848359         2.360604         0.583410
 H        -4.168303         0.093032        -0.973873
 H        -3.250489         1.551625        -0.799713
 H        -2.663746        -0.786031         1.419942
