19
Iteration:  1128charge 0 multiplicity 1
 O         0.075500        -0.247998         0.036330
 C        -0.966164         0.437222         0.758970
 C        -1.262203         1.946804         0.705709
 C        -2.335853         1.176026         1.799687
 C        -1.098708         0.552022         2.384932
 O        -3.599065         1.726293         2.075247
 C        -4.347418         1.691696         0.712477
 C        -3.529467         0.564611        -0.115332
 C        -2.456834         0.003068         0.764767
 H         0.775516         0.487439        -0.034509
 H        -0.440347         2.465463         1.262869
 H        -1.571065         2.380923        -0.216910
 H        -0.319136         1.153080         3.027678
 H        -1.083529        -0.374680         2.892455
 H        -5.406267         1.401581         0.943684
 H        -4.257061         2.674851         0.188863
 H        -4.268499        -0.273055        -0.349567
 H        -3.132850         0.803551        -1.049897
 H        -2.633609        -1.039060         1.052568
