19
Iteration:   660charge 0 multiplicity 1
 O         0.117963        -0.432032         0.198099
 C        -0.879401         0.474274         0.779210
 C        -1.253756         2.045254         0.746944
 C        -2.258213         1.381910         1.725242
 C        -1.022311         0.468075         2.293485
 O        -3.570458         1.763928         2.068623
 C        -4.510284         1.339679         0.912521
 C        -3.687501         0.734098        -0.276214
 C        -2.422337         0.187691         0.571454
 H         1.033710        -0.110149         0.480744
 H        -0.538483         2.700798         1.282740
 H        -1.568935         2.181446        -0.315126
 H        -0.120371         1.052215         2.830716
 H        -1.303242        -0.477655         2.760538
 H        -5.207306         0.659186         1.434048
 H        -5.010373         2.302073         0.593740
 H        -4.333723        -0.022387        -0.831276
 H        -3.282024         1.400348        -0.996758
 H        -2.691472        -0.774529         1.096298
