19
Iteration:  3225charge 0 multiplicity 1
 O         0.113496        -0.146403         0.004417
 C        -0.959739         0.479451         0.800972
 C        -1.298914         1.932254         0.734847
 C        -2.278738         1.214306         1.737842
 C        -1.081184         0.538768         2.365045
 O        -3.568081         1.689369         2.046759
 C        -4.232705         1.673812         0.700361
 C        -3.610228         0.480045        -0.084708
 C        -2.540135         0.077064         0.786184
 H         0.114138        -1.070026         0.223588
 H        -0.528577         2.541152         1.354917
 H        -1.702076         2.432358        -0.157585
 H        -0.402894         1.214791         2.850290
 H        -1.207568        -0.419900         2.872237
 H        -5.229402         1.466574         0.924231
 H        -3.969139         2.588980         0.193678
 H        -4.221536        -0.394552        -0.194093
 H        -3.436033         0.826163        -1.143975
 H        -2.789152        -0.820964         1.403162
