19
Iteration:   219
 O         0.243819        -0.020250         0.044664
 C        -0.909014         0.404396         0.835650
 C        -1.364395         1.778487         0.775856
 C        -2.406328         1.071229         1.787532
 C        -1.122767         0.380910         2.335633
 O        -3.589404         1.740893         2.064802
 C        -4.246032         1.822718         0.795828
 C        -3.645838         0.700422        -0.251889
 C        -2.479650        -0.111120         0.677325
 H         1.002436        -0.023055         0.686716
 H        -0.696724         2.557678         1.385670
 H        -1.731082         2.217324        -0.103253
 H        -0.478303         0.884110         3.108883
 H        -1.441659        -0.526946         2.745346
 H        -5.327505         1.829432         1.052960
 H        -4.032057         2.760188         0.274295
 H        -4.434174         0.099564        -0.482283
 H        -3.202499         1.002034        -1.147723
 H        -2.706748        -1.101432         0.888781
