19
Iteration:   297charge 0 multiplicity 1
 O         0.127650        -0.205868         0.104981
 C        -0.947979         0.397116         0.823272
 C        -1.248604         1.961030         0.779662
 C        -2.244800         1.287141         1.723673
 C        -1.117719         0.429197         2.420101
 O        -3.602059         1.665063         2.030712
 C        -4.386787         1.516268         0.829118
 C        -3.517934         0.752661        -0.260183
 C        -2.444293         0.174477         0.707424
 H        -0.355865        -0.948797        -0.417013
 H        -0.295321         2.493122         1.152303
 H        -1.714050         2.423662        -0.071926
 H        -0.405326         1.059225         2.973037
 H        -1.403923        -0.555626         2.745792
 H        -5.144564         0.746888         1.013865
 H        -4.892459         2.400641         0.430517
 H        -4.041962        -0.032395        -0.733157
 H        -3.132316         1.407125        -1.036011
 H        -2.786245        -0.755558         1.135720
