19
Iteration:  1939charge 0 multiplicity 1
 O         0.000426        -0.236637         0.099808
 C        -0.941123         0.471532         0.734465
 C        -1.299443         1.939892         0.793943
 C        -2.296251         1.243405         1.740352
 C        -1.087346         0.510689         2.391158
 O        -3.520142         1.717464         2.089058
 C        -4.225880         1.680910         0.777155
 C        -3.680389         0.464894        -0.197378
 C        -2.424237         0.075136         0.673537
 H         0.850848         0.236711         0.176234
 H        -0.654674         2.764489         1.206222
 H        -1.687445         2.415087        -0.106760
 H        -0.303361         1.090602         2.719208
 H        -1.077316        -0.563442         2.792581
 H        -5.288418         1.446948         0.921041
 H        -4.246103         2.709528         0.287802
 H        -4.478576        -0.350788        -0.241373
 H        -3.553797         0.645965        -1.298765
 H        -2.459285        -0.934031         1.201724
