19
Iteration:  2122charge 0 multiplicity 1
 O         0.150647        -0.315584         0.213478
 C        -0.916190         0.409748         0.715237
 C        -1.113323         2.025262         0.747730
 C        -2.274769         1.264176         1.635374
 C        -1.186607         0.502981         2.324255
 O        -3.561509         1.828974         2.020034
 C        -4.445211         1.395521         0.988503
 C        -3.609067         0.711626        -0.198494
 C        -2.460988         0.102632         0.643882
 H        -0.105799        -0.466686        -0.671776
 H        -0.447183         2.589330         1.376138
 H        -1.350032         2.601346        -0.121356
 H        -0.376463         0.984594         2.759221
 H        -1.521511        -0.507716         2.806250
 H        -5.124566         0.778052         1.591272
 H        -5.014353         2.257765         0.601853
 H        -4.059532        -0.104163        -0.758392
 H        -3.304007         1.387656        -1.022105
 H        -2.709076        -0.879712         1.064260
