19
Iteration:  3991
 O         0.056699        -0.139358        -0.018207
 C        -0.910956         0.376122         0.866737
 C        -1.209361         1.905759         0.678616
 C        -2.270202         1.317135         1.696072
 C        -0.995519         0.652948         2.485498
 O        -3.562846         1.884570         1.907100
 C        -4.438834         1.425655         0.822590
 C        -3.619899         0.480258        -0.070997
 C        -2.448531         0.041140         0.821631
 H        -0.089231        -1.109811        -0.281606
 H        -0.515919         2.612652         1.156652
 H        -1.481199         2.172831        -0.330488
 H        -0.210296         1.192080         2.931864
 H        -1.278461        -0.265218         2.999499
 H        -5.283103         0.861190         1.247847
 H        -4.688360         2.301735         0.172813
 H        -4.238944        -0.425570        -0.474738
 H        -3.340582         1.039264        -1.028105
 H        -2.718707        -0.881192         1.415208
