19
Iteration:  1448
 O         0.095244        -0.326185         0.054866
 C        -0.871683         0.443658         0.790307
 C        -1.242011         2.011795         0.775361
 C        -2.253123         1.298121         1.646084
 C        -1.125805         0.496747         2.454520
 O        -3.499522         1.792650         2.068088
 C        -4.413667         1.493425         0.814693
 C        -3.685794         0.551799        -0.232357
 C        -2.479763         0.130803         0.683030
 H         0.955995         0.162349         0.090704
 H        -0.639210         2.750882         1.232093
 H        -1.695651         2.278257        -0.181233
 H        -0.394954         1.058311         3.013803
 H        -1.489985        -0.527852         2.890395
 H        -5.168568         0.854154         1.378030
 H        -4.776001         2.524602         0.469807
 H        -4.293527        -0.232087        -0.558412
 H        -3.178019         1.132683        -1.006873
 H        -2.654320        -0.787609         1.156509
