19
Iteration:   560
 O         0.084795        -0.210932         0.103975
 C        -0.995789         0.480964         0.779966
 C        -1.296344         1.934572         0.824742
 C        -2.339630         1.235741         1.716498
 C        -1.090094         0.508769         2.325293
 O        -3.561217         1.644422         2.111994
 C        -4.213497         1.667856         0.754689
 C        -3.623413         0.481182        -0.211278
 C        -2.479554         0.125380         0.723570
 H         0.689278         0.390807        -0.413727
 H        -0.558524         2.585537         1.281227
 H        -1.575568         2.211659        -0.297952
 H        -0.348949         1.119538         2.888192
 H        -1.182057        -0.481116         2.929283
 H        -5.282858         1.624445         0.992379
 H        -4.066139         2.670308         0.267697
 H        -4.204405        -0.428458        -0.285746
 H        -3.412545         0.858672        -1.257239
 H        -2.646795        -0.910959         1.120600
