19
Iteration:  4942
 O         0.115899        -0.301064         0.197521
 C        -0.926577         0.443328         0.768794
 C        -1.241492         1.932751         0.580470
 C        -2.266578         1.300142         1.623633
 C        -1.048876         0.479276         2.355889
 O        -3.503436         1.890358         2.003112
 C        -4.437816         1.485229         0.957401
 C        -3.701903         0.507886        -0.093494
 C        -2.449925         0.070443         0.688734
 H         0.828422         0.328467        -0.128339
 H        -0.526868         2.713338         0.800264
 H        -1.685813         2.249367        -0.403758
 H        -0.238856         1.044842         2.868577
 H        -1.302153        -0.439711         2.872210
 H        -5.321959         1.113051         1.514421
 H        -4.786309         2.373700         0.341650
 H        -4.353835        -0.227105        -0.443667
 H        -3.501179         1.288407        -0.906675
 H        -2.695676        -0.710228         1.335418
