19
Iteration:  3507
 O         0.089480        -0.245142         0.133014
 C        -0.927413         0.407104         0.821262
 C        -1.249076         1.913118         0.586404
 C        -2.299236         1.274742         1.625723
 C        -1.152286         0.520900         2.389539
 O        -3.527329         1.799937         2.081967
 C        -4.360336         1.569382         0.834492
 C        -3.636433         0.554086        -0.088100
 C        -2.427489         0.043533         0.719629
 H         0.640756         0.536976        -0.082303
 H        -0.540406         2.540415         1.103829
 H        -1.560350         2.132776        -0.394788
 H        -0.435817         1.140808         3.026538
 H        -1.393019        -0.493100         2.776891
 H        -5.404684         1.322505         1.153744
 H        -4.360787         2.537074         0.249339
 H        -4.126507        -0.325414        -0.483505
 H        -3.279752         1.093496        -1.036239
 H        -2.574082        -0.964173         1.219206
