19
Iteration:  3060charge 0 multiplicity 1
 O         0.203353        -0.213911         0.180105
 C        -0.882408         0.387738         0.777049
 C        -1.150018         1.911570         0.702223
 C        -2.259750         1.289077         1.631124
 C        -1.227295         0.490615         2.367193
 O        -3.465053         1.961602         1.869026
 C        -4.519041         1.297458         1.051709
 C        -3.740495         0.711084        -0.078597
 C        -2.387281         0.127848         0.591292
 H        -0.121699        -1.097261        -0.006332
 H        -0.349875         2.595043         1.112931
 H        -1.390525         2.311651        -0.334867
 H        -0.552128         1.003773         2.950165
 H        -1.526019        -0.460077         2.816961
 H        -4.838661         0.516151         1.595333
 H        -5.265758         1.985695         0.565294
 H        -4.379477        -0.071692        -0.582369
 H        -3.376830         1.330872        -0.872593
 H        -2.671086        -0.850661         1.097090
