19
Iteration:  2143
 O         0.148133        -0.341301         0.159415
 C        -0.859810         0.436613         0.766631
 C        -1.229120         1.981232         0.765826
 C        -2.251182         1.297707         1.636909
 C        -1.191033         0.517404         2.362115
 O        -3.513401         1.739462         2.048945
 C        -4.429540         1.480287         0.918268
 C        -3.638197         0.676683        -0.149821
 C        -2.420809         0.153247         0.618123
 H        -0.147919        -0.373943        -0.802595
 H        -0.536948         2.706332         1.236804
 H        -1.561634         2.397169        -0.203628
 H        -0.680013         1.134388         3.052175
 H        -1.579905        -0.481392         2.873507
 H        -5.330793         0.915327         1.289344
 H        -4.650517         2.440740         0.477707
 H        -4.332456        -0.254414        -0.606128
 H        -3.246335         1.268026        -1.073233
 H        -2.508439        -0.846391         1.047087
