19
Iteration:  1850charge 0 multiplicity 1
 O         0.066606        -0.379826         0.053029
 C        -0.932726         0.449326         0.722038
 C        -1.297503         2.067384         0.731170
 C        -2.328459         1.284034         1.668983
 C        -1.109235         0.531953         2.408151
 O        -3.566387         1.745453         2.082857
 C        -4.337361         1.539589         0.851620
 C        -3.554936         0.544940        -0.151407
 C        -2.418943         0.142233         0.708522
 H         0.908535         0.065859         0.007463
 H        -0.393473         2.478464         1.286933
 H        -1.569507         2.540993        -0.219307
 H        -0.410908         1.012556         2.988811
 H        -1.311197        -0.559483         2.779954
 H        -5.394617         1.211949         1.127325
 H        -4.699719         2.545326         0.538825
 H        -4.240208        -0.280221        -0.411422
 H        -3.185553         1.086906        -1.096414
 H        -2.626067        -0.874169         1.188712
