19
Iteration:   727
 O         0.099672        -0.233578         0.025422
 C        -0.945921         0.407829         0.809695
 C        -1.181594         1.839084         0.744164
 C        -2.315899         1.259981         1.784865
 C        -1.138739         0.430534         2.424104
 O        -3.550395         1.960430         1.909039
 C        -4.415564         1.309886         0.960963
 C        -3.587172         0.693839        -0.265306
 C        -2.474638         0.187548         0.708761
 H         0.853803         0.268354         0.381325
 H        -0.387130         2.512599         1.146883
 H        -1.583423         2.027384        -0.172201
 H        -0.288095         1.107379         2.901812
 H        -1.092623        -0.580496         2.828677
 H        -4.961368         0.407763         1.288976
 H        -5.179841         2.100768         0.759617
 H        -4.053711        -0.030963        -0.994645
 H        -3.221017         1.503563        -0.782060
 H        -2.830395        -0.689080         1.310911
