19
Iteration:  2543
 O         0.153583        -0.162326         0.097232
 C        -0.923022         0.449741         0.705827
 C        -1.186125         1.962441         0.712157
 C        -2.279890         1.223226         1.705200
 C        -1.211043         0.516840         2.416928
 O        -3.539956         1.694098         2.083670
 C        -4.319032         1.712103         0.839286
 C        -3.642720         0.465106        -0.109074
 C        -2.501101         0.012011         0.691177
 H        -0.064803        -0.589725        -0.784293
 H        -0.662925         2.677035         1.342878
 H        -1.421150         2.426052        -0.186440
 H        -0.453243         1.227246         2.979995
 H        -1.386087        -0.509699         2.708878
 H        -5.342653         1.536639         1.011412
 H        -4.179474         2.750956         0.390999
 H        -4.324238        -0.317634        -0.389334
 H        -3.306563         0.835506        -1.147593
 H        -2.583534        -0.847880         1.282634
