19
Iteration:  1497charge 0 multiplicity 1
 O         0.121173        -0.241659         0.088843
 C        -0.918736         0.387397         0.774455
 C        -1.321559         1.936293         0.597941
 C        -2.284422         1.278122         1.727044
 C        -1.084476         0.536636         2.405802
 O        -3.548158         1.658282         2.115891
 C        -4.372892         1.534238         0.816183
 C        -3.607172         0.656219        -0.254725
 C        -2.485886         0.098786         0.755143
 H         1.006022         0.021709         0.448446
 H        -0.528263         2.633295         1.058526
 H        -1.784772         2.194685        -0.405244
 H        -0.265930         1.124168         2.988399
 H        -1.408238        -0.337748         2.942146
 H        -5.370052         1.437402         1.168946
 H        -4.184728         2.543226         0.517267
 H        -4.336356        -0.150165        -0.621870
 H        -3.196285         1.397352        -0.937596
 H        -2.865916        -0.875065         1.335981
