19
Iteration:  1151
 O         0.067833        -0.252882         0.019401
 C        -0.836490         0.449410         0.806644
 C        -1.338379         1.994930         0.882287
 C        -2.317698         1.281199         1.716808
 C        -1.031866         0.484739         2.340560
 O        -3.598190         1.722282         2.016543
 C        -4.267137         1.625806         0.734464
 C        -3.725423         0.478368        -0.169505
 C        -2.453957         0.087654         0.747248
 H         0.937053         0.111935         0.149331
 H        -0.549525         2.657489         1.291675
 H        -1.671750         2.232937        -0.110272
 H        -0.260600         1.013381         2.983435
 H        -1.224594        -0.380040         2.945611
 H        -5.310632         1.665272         1.037329
 H        -3.932842         2.579778         0.218502
 H        -4.337369        -0.427554        -0.346360
 H        -3.402244         0.811661        -1.128235
 H        -2.782727        -0.808881         1.313161
