19
Iteration:   103charge 0 multiplicity 1
 O         0.270603        -0.170990         0.137374
 C        -0.929699         0.336501         0.779913
 C        -1.173057         1.860950         0.795325
 C        -2.228427         1.221409         1.684629
 C        -1.256314         0.284122         2.411376
 O        -3.544469         1.883131         1.971375
 C        -4.478197         1.420126         0.918485
 C        -3.652356         0.845962        -0.240242
 C        -2.513678         0.124959         0.577313
 H         0.988590         0.469728         0.485590
 H        -0.358833         2.427319         1.328445
 H        -1.465371         2.361175        -0.151423
 H        -0.479161         0.671315         3.134213
 H        -1.596831        -0.636747         2.841763
 H        -5.143175         0.663909         1.318047
 H        -5.080306         2.306812         0.578045
 H        -4.312551         0.191167        -0.879403
 H        -3.184545         1.667478        -0.907287
 H        -2.866973        -0.848209         1.019972
