19
Iteration:    23charge 0 multiplicity 1
 O         0.026490        -0.284265         0.010840
 C        -0.933129         0.412466         0.819833
 C        -1.099952         1.889170         0.775059
 C        -2.344372         1.216512         1.739404
 C        -1.131712         0.464340         2.445432
 O        -3.619123         1.817764         1.974580
 C        -4.488333         1.310704         0.858110
 C        -3.425850         0.913686        -0.240555
 C        -2.458616         0.126705         0.681857
 H         0.862669        -0.217129         0.586769
 H        -0.323359         2.458569         1.339767
 H        -1.388519         2.355936        -0.126917
 H        -0.421337         1.088521         3.047197
 H        -1.366454        -0.415842         2.982788
 H        -5.056237         0.445862         1.219694
 H        -5.182478         2.094469         0.528325
 H        -3.849048         0.409026        -1.108542
 H        -3.041528         1.875524        -0.578250
 H        -2.840770        -0.839898         1.019451
