19
Iteration:  1870charge 0 multiplicity 1
 O         0.016746        -0.313828         0.110755
 C        -0.887496         0.497735         0.790852
 C        -1.301860         1.938929         0.734817
 C        -2.269913         1.209602         1.715985
 C        -1.079673         0.511078         2.342819
 O        -3.539949         1.732113         2.053881
 C        -4.320209         1.584615         0.796001
 C        -3.605615         0.600479        -0.141516
 C        -2.418143         0.064342         0.682960
 H         0.807766         0.282089        -0.115026
 H        -0.893119         2.773572         1.202723
 H        -1.781508         2.286695        -0.166056
 H        -0.401954         1.195758         2.824565
 H        -1.245974        -0.446559         2.873282
 H        -5.361778         1.470567         1.206926
 H        -4.539472         2.634427         0.429655
 H        -4.280106        -0.163519        -0.404354
 H        -3.412598         1.075900        -1.113808
 H        -2.589161        -0.897267         1.201099
