19
Iteration:  2126charge 0 multiplicity 1
 O         0.160832        -0.332374         0.198502
 C        -0.918543         0.419858         0.717983
 C        -1.133804         2.028240         0.762349
 C        -2.288080         1.275506         1.624192
 C        -1.219982         0.513136         2.343102
 O        -3.556676         1.806540         2.018478
 C        -4.448967         1.429320         0.983619
 C        -3.576001         0.689502        -0.178015
 C        -2.417129         0.086563         0.620170
 H        -0.094920        -0.509059        -0.777127
 H        -0.415440         2.548199         1.412711
 H        -1.393804         2.611000        -0.132280
 H        -0.288879         1.022757         2.776435
 H        -1.519208        -0.403508         2.713341
 H        -5.163714         0.861756         1.595728
 H        -5.082216         2.305723         0.653030
 H        -4.111146        -0.068415        -0.707524
 H        -3.431148         1.382519        -0.974917
 H        -2.793910        -0.847509         1.126871
