19
Iteration:   698charge 0 multiplicity 1
 O         0.094068        -0.278611         0.085372
 C        -0.921438         0.417721         0.808405
 C        -1.143667         1.986411         0.743054
 C        -2.277265         1.355371         1.569989
 C        -1.280625         0.489096         2.359030
 O        -3.470021         1.884002         1.979818
 C        -4.442800         1.271544         1.027278
 C        -3.633301         0.659640        -0.188948
 C        -2.404315         0.097943         0.623102
 H         0.883805        -0.201661         0.575459
 H        -0.533459         2.673605         1.403190
 H        -1.285313         2.382354        -0.273781
 H        -0.483694         0.876784         2.926004
 H        -1.735620        -0.450066         2.763387
 H        -5.080012         0.498226         1.500400
 H        -5.113060         2.069684         0.737230
 H        -4.142500         0.076456        -0.910029
 H        -3.254823         1.627230        -0.627790
 H        -2.663058        -0.773116         1.185256
