19
Iteration:  4579charge 0 multiplicity 1
 O         0.090126        -0.352106         0.165195
 C        -0.822837         0.409200         0.853115
 C        -1.239853         1.976445         0.621239
 C        -2.234047         1.345946         1.565055
 C        -1.110850         0.638060         2.334012
 O        -3.535723         1.922010         2.008341
 C        -4.401760         1.291630         0.988356
 C        -3.631873         0.645204        -0.133170
 C        -2.430092         0.051075         0.724941
 H        -0.366663        -0.931306        -0.514449
 H        -0.697362         2.892155         0.865777
 H        -1.543813         2.006293        -0.423309
 H        -0.609631         1.304928         2.992206
 H        -1.331998        -0.284541         2.871236
 H        -4.970040         0.450630         1.413008
 H        -5.132501         2.046321         0.611012
 H        -4.264828         0.135800        -0.831856
 H        -3.380819         1.525881        -1.014842
 H        -2.770309        -0.754702         1.452048
