19
Iteration:  4577charge 0 multiplicity 1
 O         0.092554        -0.346097         0.155400
 C        -0.825766         0.405430         0.860840
 C        -1.244600         1.974393         0.627268
 C        -2.224360         1.337397         1.561263
 C        -1.112301         0.641709         2.333153
 O        -3.541941         1.925679         2.004584
 C        -4.389997         1.286758         0.979568
 C        -3.624986         0.657814        -0.134415
 C        -2.444852         0.029773         0.727624
 H        -0.354228        -0.880525        -0.464690
 H        -0.667781         2.856473         0.917205
 H        -1.547096         2.010852        -0.454068
 H        -0.551197         1.370333         2.964087
 H        -1.356164        -0.266525         2.915359
 H        -4.950973         0.457031         1.507642
 H        -5.140535         2.073335         0.574426
 H        -4.291725         0.155224        -0.836788
 H        -3.418705         1.498976        -0.941011
 H        -2.782402        -0.747946         1.432890
