19
Iteration:  3889charge 0 multiplicity 1
 O         0.195407        -0.181390         0.206479
 C        -0.970671         0.354608         0.747001
 C        -1.256225         1.928068         0.660190
 C        -2.301088         1.334356         1.598161
 C        -1.142127         0.501039         2.281022
 O        -3.435776         2.003566         1.868872
 C        -4.435792         1.290588         1.047155
 C        -3.671844         0.593145        -0.100709
 C        -2.473374         0.060240         0.664863
 H         0.695389        -0.741496         0.750874
 H        -0.444705         2.451547         1.205229
 H        -1.601911         2.453057        -0.279363
 H        -0.302320         1.001223         2.888737
 H        -1.451528        -0.328426         2.959463
 H        -5.042053         0.644309         1.731944
 H        -5.093097         2.096414         0.562357
 H        -4.213923        -0.226744        -0.484178
 H        -3.493689         1.363073        -0.869041
 H        -2.851957        -0.804520         1.179008
