19
Iteration:  2949charge 0 multiplicity 1
 O         0.100189        -0.198662         0.055259
 C        -0.888065         0.464927         0.794415
 C        -1.218754         1.913933         0.701682
 C        -2.260129         1.228392         1.641665
 C        -1.099009         0.561217         2.390631
 O        -3.583649         1.717402         2.092754
 C        -4.437618         1.573985         0.771593
 C        -3.603240         0.556116        -0.098595
 C        -2.411920         0.130337         0.755399
 H        -0.204089        -1.173153         0.041067
 H        -0.462444         2.662388         0.989574
 H        -1.620070         2.334542        -0.286785
 H        -0.383437         1.070473         2.941874
 H        -1.364268        -0.369491         2.782858
 H        -5.407758         1.374441         1.206454
 H        -4.390426         2.580726         0.212272
 H        -4.184313        -0.329924        -0.445226
 H        -3.250217         1.027704        -0.970670
 H        -2.634834        -0.824285         1.315886
