19
Iteration:  2865
 O         0.159595        -0.163516         0.027680
 C        -0.951124         0.398401         0.715358
 C        -1.325778         1.917121         0.687567
 C        -2.347904         1.210068         1.727307
 C        -1.069908         0.608908         2.410797
 O        -3.582657         1.646904         2.090328
 C        -4.231891         1.673822         0.763949
 C        -3.685439         0.595687        -0.126340
 C        -2.483664         0.028143         0.790605
 H         0.647207        -0.818260         0.496303
 H        -0.632402         2.519891         1.158963
 H        -1.563239         2.199405        -0.323786
 H        -0.250380         1.262452         2.705505
 H        -1.149901        -0.405094         3.066402
 H        -5.357789         1.659218         0.961033
 H        -4.068847         2.550041         0.187724
 H        -4.477772        -0.215957        -0.335063
 H        -3.379270         1.015811        -1.095987
 H        -2.519333        -0.891577         1.294144
