19
Iteration:  1856charge 0 multiplicity 1
 O         0.055314        -0.363357         0.072335
 C        -0.874502         0.452624         0.740069
 C        -1.303560         2.078375         0.761170
 C        -2.357460         1.226838         1.683131
 C        -1.120094         0.535208         2.337018
 O        -3.546762         1.736551         2.065710
 C        -4.336949         1.595645         0.868431
 C        -3.579398         0.585760        -0.158946
 C        -2.428520         0.105840         0.740272
 H         0.916616         0.001292        -0.119263
 H        -0.397083         2.463672         1.154821
 H        -1.757514         2.407284        -0.198621
 H        -0.429305         1.120946         3.139149
 H        -1.320650        -0.403578         2.698014
 H        -5.176477         0.898428         0.982730
 H        -4.508422         2.543547         0.313097
 H        -4.223819        -0.296417        -0.226500
 H        -3.261117         0.989533        -1.064733
 H        -2.643160        -0.864846         1.095810
