19
Iteration:  2924
 O         0.238289        -0.142244         0.095437
 C        -0.987256         0.406039         0.733401
 C        -1.304983         1.931364         0.782099
 C        -2.268489         1.209223         1.647327
 C        -1.092808         0.507715         2.377104
 O        -3.579935         1.809821         2.053837
 C        -4.281890         1.666467         0.795265
 C        -3.733951         0.470087        -0.142359
 C        -2.455349         0.033896         0.760333
 H        -0.021881        -1.011959        -0.257250
 H        -0.542525         2.703532         1.052053
 H        -1.758562         2.388734        -0.101667
 H        -0.247193         1.194422         2.795935
 H        -1.147853        -0.453419         2.873632
 H        -5.174476         1.325875         1.228915
 H        -4.264777         2.675625         0.257567
 H        -4.454740        -0.286620        -0.212454
 H        -3.456575         0.777113        -1.179954
 H        -2.629716        -0.890133         1.353658
