19
Iteration:  4568
 O         0.132814        -0.297462         0.135509
 C        -0.899184         0.392121         0.837890
 C        -1.248305         1.918062         0.607748
 C        -2.272385         1.301067         1.596351
 C        -1.089807         0.673749         2.396948
 O        -3.512394         1.919329         1.940132
 C        -4.411296         1.283069         0.995791
 C        -3.591838         0.667981        -0.147322
 C        -2.499048         0.030608         0.723551
 H        -0.422316        -0.796978        -0.427450
 H        -0.499356         2.479288         1.165891
 H        -1.558484         2.305424        -0.373743
 H        -0.280693         1.322519         2.632592
 H        -1.439026        -0.061980         3.114043
 H        -4.934016         0.642833         1.686773
 H        -5.105632         2.048053         0.580104
 H        -4.242759        -0.046043        -0.609738
 H        -3.105785         1.664144        -0.748597
 H        -2.852969        -0.907410         1.270786
