19
Iteration:  4699
 O         0.058737        -0.360325         0.078523
 C        -0.904149         0.437514         0.742280
 C        -1.268100         1.948960         0.624258
 C        -2.258502         1.273132         1.742145
 C        -1.036874         0.642366         2.383181
 O        -3.579845         1.822629         2.001975
 C        -4.457619         1.544950         0.838653
 C        -3.630624         0.522978        -0.069901
 C        -2.369530         0.036080         0.773344
 H         0.890888         0.028317        -0.045879
 H        -0.552403         2.754451         0.946993
 H        -1.729448         2.291021        -0.308303
 H        -0.241610         1.214886         2.848377
 H        -1.377364        -0.211841         3.021014
 H        -5.493636         1.314659         1.272147
 H        -4.667183         2.666698         0.403258
 H        -4.110799        -0.409923        -0.207156
 H        -3.395366         0.832175        -1.182665
 H        -2.547934        -0.957967         1.191658
