19
Iteration:   434charge 0 multiplicity 1
 O         0.073738        -0.210276         0.143474
 C        -0.959171         0.459802         0.758462
 C        -1.167561         1.969140         0.729032
 C        -2.309674         1.214375         1.739109
 C        -1.119783         0.505382         2.368346
 O        -3.571846         1.810999         2.026362
 C        -4.441717         1.354987         0.846259
 C        -3.489734         0.737484        -0.175942
 C        -2.448954         0.083758         0.680414
 H        -0.255320        -1.022637        -0.170044
 H        -0.339418         2.498760         1.230485
 H        -1.380964         2.449512        -0.153734
 H        -0.386583         1.143471         2.876623
 H        -1.242450        -0.478580         2.690561
 H        -5.264759         0.722394         1.212674
 H        -4.866029         2.244206         0.429271
 H        -4.041035         0.090971        -0.941586
 H        -3.004958         1.542045        -0.732650
 H        -2.675010        -0.899026         1.131710
