19
Iteration:  1107
 O         0.025898        -0.187884         0.097583
 C        -0.919170         0.413660         0.885314
 C        -1.357223         1.870417         0.638968
 C        -2.233915         1.248652         1.650668
 C        -1.179445         0.516445         2.403163
 O        -3.505980         1.691670         2.066870
 C        -4.229079         1.603660         0.840503
 C        -3.554261         0.590075        -0.196235
 C        -2.479022         0.053156         0.726275
 H         0.716149         0.434149        -0.114932
 H        -0.789895         2.736866         1.127380
 H        -1.838568         2.070815        -0.301056
 H        -0.380296         1.144962         3.033128
 H        -1.411542        -0.319086         3.027194
 H        -5.270946         1.255932         0.995203
 H        -4.207074         2.552576         0.245067
 H        -4.342368        -0.074908        -0.687885
 H        -3.257406         1.216215        -1.017060
 H        -2.775773        -0.843751         1.316266
