19
Iteration:  2206
 O         0.160783        -0.188671         0.103136
 C        -0.906866         0.446052         0.819526
 C        -1.345266         1.894448         0.701806
 C        -2.293938         1.144195         1.691676
 C        -1.136030         0.501700         2.392976
 O        -3.540389         1.712729         2.112089
 C        -4.224896         1.769095         0.794570
 C        -3.692592         0.547915        -0.213589
 C        -2.471306         0.003518         0.726837
 H         0.340172         0.219885        -0.816489
 H        -0.657091         2.679766         1.176046
 H        -1.861132         2.167289        -0.297851
 H        -0.659943         1.129589         3.178996
 H        -1.162042        -0.462955         2.886501
 H        -5.301459         1.635327         1.060496
 H        -4.141038         2.738415         0.311397
 H        -4.367470        -0.301085        -0.172160
 H        -3.249091         0.950943        -1.125328
 H        -2.678109        -1.034585         1.031106
