19
Iteration:  2073charge 0 multiplicity 1
 O         0.168821        -0.325143         0.177888
 C        -0.895247         0.432687         0.713726
 C        -1.199479         1.902660         0.778412
 C        -2.312421         1.275976         1.626288
 C        -1.234890         0.492710         2.347290
 O        -3.493957         1.933303         1.975760
 C        -4.424720         1.307527         0.980348
 C        -3.596455         0.710839        -0.133724
 C        -2.476676         0.093235         0.615314
 H         0.481132         0.171119        -0.655989
 H        -0.377050         2.482214         1.303394
 H        -1.408756         2.400804        -0.217867
 H        -0.535283         1.151684         3.001000
 H        -1.513500        -0.426997         2.766299
 H        -4.859348         0.579911         1.657262
 H        -5.140150         2.104715         0.734158
 H        -4.366122         0.232950        -0.932226
 H        -3.230216         1.589545        -0.742940
 H        -2.830398        -0.810529         1.131970
