19
Iteration:  2532
 O         0.221832        -0.205286         0.029581
 C        -0.926309         0.454011         0.815322
 C        -1.175490         1.981717         0.752065
 C        -2.347800         1.221385         1.658520
 C        -1.141724         0.474857         2.366744
 O        -3.580498         1.729737         2.040133
 C        -4.332374         1.636154         0.813803
 C        -3.668673         0.542627        -0.095486
 C        -2.443101         0.058299         0.745120
 H        -0.286602        -0.632063        -0.748727
 H        -0.448333         2.574582         1.318008
 H        -1.652697         2.404554        -0.050172
 H        -0.457205         1.122646         3.102941
 H        -1.359916        -0.426801         2.978094
 H        -5.324002         1.454707         1.150009
 H        -4.345869         2.581881         0.191432
 H        -4.406774        -0.243585        -0.112394
 H        -3.398294         0.959263        -1.155952
 H        -2.812032        -0.819136         1.173714
