19
Iteration:  3989charge 0 multiplicity 1
 O         0.055160        -0.148537        -0.014263
 C        -0.901489         0.376311         0.885175
 C        -1.232339         1.914938         0.670822
 C        -2.242985         1.323405         1.698119
 C        -0.993337         0.645489         2.458831
 O        -3.579134         1.873745         1.893999
 C        -4.454705         1.423761         0.837910
 C        -3.625943         0.488139        -0.090778
 C        -2.440986         0.052833         0.835398
 H        -0.086959        -1.139657        -0.216587
 H        -0.495478         2.561083         1.208845
 H        -1.522961         2.123855        -0.336043
 H        -0.129555         1.175372         2.925605
 H        -1.313120        -0.267096         3.031989
 H        -5.201724         0.873306         1.242793
 H        -4.650850         2.302142         0.229023
 H        -4.139331        -0.390030        -0.457238
 H        -3.324526         1.080084        -0.991791
 H        -2.715390        -0.811736         1.373371
