19
Iteration:  3573
 O         0.050959        -0.305813         0.124757
 C        -0.974980         0.405142         0.782838
 C        -1.129906         1.920318         0.633397
 C        -2.250401         1.373719         1.654781
 C        -1.063318         0.536977         2.378412
 O        -3.553619         1.897021         1.929252
 C        -4.435924         1.204805         0.999943
 C        -3.547317         0.707805        -0.211186
 C        -2.519872         0.199292         0.718596
 H         0.527031        -0.719419         0.864720
 H        -0.396221         2.522530         1.167348
 H        -1.511215         2.391252        -0.256925
 H        -0.374180         1.148307         3.027524
 H        -1.378533        -0.444147         2.750538
 H        -4.867477         0.379474         1.585309
 H        -5.141364         1.982928         0.665284
 H        -4.196288         0.098266        -0.790893
 H        -3.411329         1.562673        -0.986360
 H        -2.811934        -0.755339         1.253045
