19
Iteration:  2696charge 0 multiplicity 1
 O         0.143106        -0.324177         0.186845
 C        -0.920976         0.407497         0.768723
 C        -1.160159         1.905134         0.645435
 C        -2.282037         1.281666         1.648294
 C        -1.199493         0.538868         2.337449
 O        -3.534037         1.851268         2.027652
 C        -4.472021         1.382919         1.002953
 C        -3.528588         0.734652        -0.186025
 C        -2.456426         0.142049         0.690194
 H         0.156196        -0.153593        -0.733985
 H        -0.440322         2.695950         1.038291
 H        -1.613108         2.283509        -0.269430
 H        -0.460113         0.887896         3.153554
 H        -1.487068        -0.442572         2.627600
 H        -5.149455         0.620265         1.415429
 H        -5.301992         2.159816         0.676006
 H        -3.993856        -0.051146        -0.733335
 H        -3.261866         1.502964        -0.944245
 H        -2.615906        -0.851788         1.095128
