19
Iteration:  1428
 O         0.016381        -0.191586         0.019531
 C        -0.931038         0.433072         0.813532
 C        -1.133636         1.870444         0.722607
 C        -2.308661         1.288313         1.697542
 C        -1.166305         0.496756         2.357460
 O        -3.570524         1.849652         1.960261
 C        -4.407484         1.439940         0.903328
 C        -3.540680         0.624053        -0.129223
 C        -2.425021         0.079847         0.752810
 H         0.878973         0.286046         0.308927
 H        -0.336097         2.360711         1.343963
 H        -1.348393         2.186527        -0.259591
 H        -0.349974         0.981489         2.919960
 H        -1.452007        -0.585365         2.777178
 H        -5.278906         0.849389         1.271238
 H        -4.776270         2.297345         0.301001
 H        -4.002614        -0.290071        -0.379025
 H        -3.316681         1.234597        -0.981167
 H        -2.868314        -0.837511         1.233418
