19
Iteration:  1745charge 0 multiplicity 1
 O         0.082122        -0.354578         0.118672
 C        -0.902155         0.368876         0.732161
 C        -1.113693         1.984496         0.727994
 C        -2.265182         1.349592         1.584610
 C        -1.205979         0.531825         2.398652
 O        -3.551515         1.806400         1.998765
 C        -4.495718         1.278202         0.961209
 C        -3.600541         0.730570        -0.155976
 C        -2.396312         0.192140         0.657475
 H         0.973460         0.061807         0.016672
 H        -0.518193         2.641542         1.394797
 H        -1.298079         2.352257        -0.267509
 H        -0.542643         1.206012         2.973446
 H        -1.403726        -0.505170         2.633641
 H        -4.997125         0.590752         1.664519
 H        -5.002474         2.210164         0.650281
 H        -4.246566        -0.118175        -0.537977
 H        -3.582203         1.539547        -0.879291
 H        -2.782545        -0.644042         1.227828
