19
Iteration:  3913
 O         0.287043        -0.286393         0.231586
 C        -0.841404         0.446412         0.739288
 C        -1.125497         1.881263         0.524095
 C        -2.304199         1.351304         1.575560
 C        -1.110553         0.510519         2.295199
 O        -3.557229         1.923813         1.979354
 C        -4.526941         1.304941         1.050326
 C        -3.781053         0.643417        -0.183748
 C        -2.501137         0.159223         0.720675
 H         0.839014        -0.595981         0.985260
 H        -0.372517         2.541465         1.004961
 H        -1.483853         2.133684        -0.453826
 H        -0.399594         1.002452         2.995701
 H        -1.496329        -0.257334         2.966994
 H        -5.064133         0.501502         1.638819
 H        -5.276445         2.162909         0.758004
 H        -4.520712        -0.072417        -0.528414
 H        -3.508324         1.467885        -0.959454
 H        -2.762565        -0.843707         1.185415
