19
Iteration:  1560
 O         0.073971        -0.237740         0.027912
 C        -0.947879         0.442346         0.740978
 C        -1.297877         1.966666         0.796867
 C        -2.321782         1.268201         1.774365
 C        -1.083946         0.422963         2.367284
 O        -3.593386         1.732730         2.035254
 C        -4.310224         1.667302         0.712313
 C        -3.617697         0.535804        -0.128284
 C        -2.387460         0.070765         0.777732
 H         0.785725         0.480046        -0.060967
 H        -0.499888         2.595888         1.319320
 H        -1.556969         2.509516        -0.057469
 H        -0.220681         1.048476         2.767100
 H        -1.490693        -0.529946         2.754634
 H        -5.340549         1.307786         0.972511
 H        -4.158314         2.673856         0.231004
 H        -4.305687        -0.277108         0.156015
 H        -3.525010         0.536128        -1.175882
 H        -2.445532        -0.960492         1.221375
