19
Iteration:   689
 O         0.069786        -0.336513         0.148040
 C        -0.908093         0.522301         0.782338
 C        -1.134058         1.992486         0.808312
 C        -2.276604         1.274963         1.597569
 C        -1.213339         0.509409         2.322156
 O        -3.475318         1.839360         1.954279
 C        -4.463166         1.284657         1.064456
 C        -3.625339         0.653063        -0.187986
 C        -2.456353         0.157897         0.524112
 H         0.915369        -0.287649         0.537477
 H        -0.384969         2.601929         1.273830
 H        -1.354596         2.495856        -0.224184
 H        -0.779632         1.220607         2.942213
 H        -1.445300        -0.479873         2.779759
 H        -5.078720         0.598350         1.651229
 H        -5.029704         2.143103         0.736894
 H        -4.246513         0.010662        -0.816882
 H        -3.168935         1.461744        -0.944610
 H        -2.680504        -0.752305         1.123088
