19
Iteration:   501
 O         0.198972        -0.170189         0.246599
 C        -1.005275         0.404778         0.758585
 C        -1.346669         1.975279         0.696848
 C        -2.301707         1.227765         1.634593
 C        -1.052965         0.432307         2.325985
 O        -3.503729         1.671249         2.032257
 C        -4.285253         1.609599         0.805235
 C        -3.681330         0.665869        -0.157085
 C        -2.536868         0.005449         0.738452
 H         0.534566         0.580062        -0.366530
 H        -0.711031         2.605078         1.336699
 H        -1.571501         2.344602        -0.209178
 H        -0.203553         0.965753         2.753295
 H        -1.242019        -0.502100         2.729641
 H        -5.295782         1.388655         1.167250
 H        -4.271660         2.553339         0.344976
 H        -4.231683        -0.267388        -0.374478
 H        -3.455016         1.136818        -1.135293
 H        -2.819256        -0.885474         1.301216
