19
Iteration:  4512
 O         0.154194        -0.246351         0.144274
 C        -0.875327         0.422805         0.718743
 C        -1.218055         1.972672         0.703449
 C        -2.257868         1.269758         1.578039
 C        -1.157670         0.581967         2.372259
 O        -3.473046         1.896918         1.952332
 C        -4.465728         1.468579         0.982226
 C        -3.687550         0.481511        -0.075473
 C        -2.392285         0.082016         0.698152
 H        -0.166914        -1.144154        -0.110759
 H        -0.568480         2.750397         1.055110
 H        -1.575597         2.386072        -0.251790
 H        -0.530815         1.229534         2.946390
 H        -1.331492        -0.303436         2.951084
 H        -5.225984         1.058139         1.604880
 H        -4.985021         2.223357         0.334145
 H        -4.290235        -0.402937        -0.332737
 H        -3.514170         1.034013        -1.185774
 H        -2.708405        -0.787441         1.347250
