19
Iteration:  3122charge 0 multiplicity 1
 O        -0.000181        -0.281146         0.070251
 C        -0.900953         0.474206         0.807092
 C        -1.234897         1.973819         0.674690
 C        -2.252635         1.267266         1.644940
 C        -1.093501         0.570524         2.467104
 O        -3.508130         1.761784         2.028315
 C        -4.426988         1.445525         0.872523
 C        -3.585642         0.591828        -0.200788
 C        -2.417148         0.165947         0.680695
 H         0.429101        -1.043284         0.470928
 H        -0.508127         2.596754         1.109443
 H        -1.518297         2.238557        -0.361689
 H        -0.307011         1.200970         3.071547
 H        -1.419188        -0.414873         2.915178
 H        -5.473526         1.060078         1.313843
 H        -4.851291         2.295579         0.429347
 H        -4.138295        -0.243740        -0.648632
 H        -3.210428         1.197607        -0.959721
 H        -2.593380        -0.646851         1.357483
