19
Iteration:  3321
 O         0.245376        -0.293546         0.252228
 C        -0.872533         0.434459         0.708029
 C        -1.158335         1.974732         0.702813
 C        -2.240551         1.404355         1.597794
 C        -1.216916         0.456817         2.355900
 O        -3.422417         1.958957         1.952414
 C        -4.522145         1.215004         1.076165
 C        -3.742500         0.680225        -0.200093
 C        -2.514139         0.169403         0.520021
 H         0.089217        -1.194581         0.639170
 H        -0.476720         2.534567         1.334135
 H        -1.567291         2.364501        -0.185460
 H        -0.339127         0.817018         2.929321
 H        -1.878935        -0.455329         2.703291
 H        -4.770648         0.347378         1.809542
 H        -5.151958         2.004220         0.746429
 H        -4.338198         0.041672        -0.837952
 H        -3.451702         1.499864        -0.841266
 H        -2.729004        -0.814991         0.928693
