19
Iteration:  1634
 O         0.083833        -0.270390         0.106971
 C        -0.844922         0.437166         0.752432
 C        -1.333107         2.000372         0.671623
 C        -2.314662         1.228385         1.719139
 C        -1.025257         0.514021         2.342147
 O        -3.544848         1.679341         2.081625
 C        -4.346180         1.603772         0.814771
 C        -3.644863         0.552180        -0.149108
 C        -2.492945         0.101124         0.727730
 H         0.995448        -0.021677         0.365829
 H        -0.643713         2.690392         1.257747
 H        -1.706767         2.482225        -0.223574
 H        -0.332282         1.135909         2.964513
 H        -1.458366        -0.445155         2.871939
 H        -5.527953         1.467003         1.042860
 H        -4.293428         2.586551         0.257756
 H        -4.246909        -0.265085        -0.565514
 H        -3.284823         1.267594        -0.974105
 H        -2.767884        -0.898302         1.075807
