19
Iteration:  4344
 O         0.138734        -0.243465         0.115314
 C        -0.941157         0.436299         0.714129
 C        -1.359730         1.939577         0.599408
 C        -2.313115         1.262943         1.715459
 C        -1.052886         0.672465         2.347989
 O        -3.696155         1.722150         2.138506
 C        -4.257323         1.589277         0.779214
 C        -3.520447         0.531228        -0.034595
 C        -2.401919         0.056656         0.790821
 H        -0.269319        -1.043176        -0.338938
 H        -0.568009         2.631902         0.900433
 H        -1.858001         2.149336        -0.336096
 H        -0.255846         1.394792         2.635858
 H        -1.188847        -0.281787         2.889866
 H        -5.402438         1.443696         0.824927
 H        -4.050432         2.449901         0.240152
 H        -4.290114        -0.334149        -0.347901
 H        -3.303270         0.839425        -1.042770
 H        -2.401410        -0.970161         1.210956
