19
Iteration:  4283charge 0 multiplicity 1
 O         0.212518        -0.142359         0.045927
 C        -0.881832         0.378431         0.821370
 C        -1.280997         1.881819         0.661046
 C        -2.324124         1.323079         1.601724
 C        -1.099450         0.506056         2.360905
 O        -3.533335         1.977279         1.990439
 C        -4.458423         1.454532         0.952087
 C        -3.589578         0.484659        -0.160301
 C        -2.493878         0.046078         0.799397
 H         0.217197        -1.115772         0.287779
 H        -0.574702         2.667913         1.068134
 H        -1.640026         2.133634        -0.399622
 H        -0.269723         1.042463         2.890651
 H        -1.398268        -0.457876         2.879476
 H        -5.322345         1.059521         1.445034
 H        -5.000293         2.392491         0.435598
 H        -4.158158        -0.343711        -0.334779
 H        -3.102547         1.089312        -1.006825
 H        -2.737693        -0.912089         1.347500
