19
Iteration:  4483charge 0 multiplicity 1
 O         0.083707        -0.180016         0.103378
 C        -0.948280         0.373412         0.767992
 C        -1.199901         1.891616         0.564060
 C        -2.302484         1.296350         1.672979
 C        -1.055415         0.660825         2.368283
 O        -3.533133         1.754759         2.075111
 C        -4.417774         1.525120         0.891053
 C        -3.615256         0.571471        -0.165740
 C        -2.462150         0.064957         0.782001
 H         0.310125        -1.091704         0.486433
 H        -0.416281         2.595639         1.009475
 H        -1.506584         2.013666        -0.500759
 H        -0.310581         1.366141         2.768022
 H        -1.285117        -0.229249         3.020491
 H        -5.257689         0.974049         1.368904
 H        -4.736214         2.383681         0.285390
 H        -4.225662        -0.221471        -0.533289
 H        -3.298101         1.062143        -1.064046
 H        -2.732595        -0.850336         1.370500
