19
Iteration:  2228
 O         0.131538        -0.180802         0.142399
 C        -1.003476         0.430226         0.791224
 C        -1.284005         1.950045         0.726550
 C        -2.290237         1.193837         1.707502
 C        -1.122512         0.454422         2.361119
 O        -3.596768         1.659511         2.040205
 C        -4.207510         1.696409         0.764222
 C        -3.699743         0.548651        -0.049263
 C        -2.429113         0.095385         0.632863
 H         0.260418         0.388655        -0.586635
 H        -0.450043         2.560740         1.217356
 H        -1.465518         2.184737        -0.380319
 H        -0.262767         0.927439         2.887206
 H        -1.237193        -0.484183         2.914461
 H        -5.307141         1.832550         0.864594
 H        -3.852410         2.626056         0.315139
 H        -4.387206        -0.208556         0.223493
 H        -3.435818         0.736595        -1.076122
 H        -2.649090        -0.861007         1.128068
