19
Iteration:  2070charge 0 multiplicity 1
 O         0.155342        -0.317582         0.172211
 C        -0.893834         0.439887         0.717626
 C        -1.172580         1.911458         0.780585
 C        -2.317135         1.275610         1.618240
 C        -1.265034         0.520000         2.339020
 O        -3.466887         1.917394         1.985797
 C        -4.434493         1.317790         0.979218
 C        -3.633229         0.719203        -0.165107
 C        -2.456709         0.073784         0.617352
 H         0.483565         0.147399        -0.563349
 H        -0.398962         2.433283         1.306248
 H        -1.402963         2.387821        -0.131063
 H        -0.580915         1.057722         2.995725
 H        -1.379287        -0.514153         2.803092
 H        -4.815960         0.595259         1.688729
 H        -5.180604         2.100939         0.591849
 H        -4.267850         0.111533        -0.808130
 H        -3.226088         1.581363        -0.651122
 H        -2.831650        -0.794867         1.229123
