19
Iteration:  3657charge 0 multiplicity 1
 O         0.175875        -0.263342         0.151834
 C        -0.951744         0.439016         0.765609
 C        -1.261071         1.913904         0.637086
 C        -2.289595         1.223873         1.676342
 C        -1.159964         0.590497         2.396184
 O        -3.509467         1.851879         2.011642
 C        -4.377736         1.477429         0.883016
 C        -3.582525         0.588439        -0.120820
 C        -2.451242         0.068646         0.734422
 H        -0.305267        -0.776018        -0.522089
 H        -0.505370         2.695271         0.950388
 H        -1.761880         2.275507        -0.270885
 H        -0.456261         1.292373         2.754412
 H        -1.278737        -0.216514         3.091561
 H        -5.247468         0.943031         1.331481
 H        -4.698008         2.389330         0.355714
 H        -4.291653        -0.187566        -0.540282
 H        -3.240062         1.257479        -0.869930
 H        -2.647359        -0.912805         1.082176
