19
Iteration:   202charge 0 multiplicity 1
 O         0.161934        -0.068449         0.025674
 C        -0.952971         0.365472         0.722443
 C        -1.393956         1.898480         0.891505
 C        -2.376000         1.093170         1.696816
 C        -1.193514         0.358660         2.461133
 O        -3.534527         1.666589         2.076690
 C        -4.145863         1.772080         0.716687
 C        -3.564551         0.636627        -0.142019
 C        -2.509736         0.048457         0.638173
 H         0.973942         0.066035         0.512164
 H        -0.791259         2.624045         1.355623
 H        -1.770361         2.441599        -0.045640
 H        -0.566914         1.188361         2.821871
 H        -1.269595        -0.622733         3.051382
 H        -5.234590         1.689320         0.733478
 H        -4.003339         2.825340         0.309794
 H        -4.351235        -0.163411        -0.503231
 H        -3.227645         1.048014        -1.188029
 H        -2.824693        -0.953437         1.131479
