19
Iteration:  2407charge 0 multiplicity 1
 O         0.157868        -0.281977         0.228517
 C        -0.893294         0.415675         0.756916
 C        -1.227223         1.921942         0.712854
 C        -2.269801         1.233444         1.631232
 C        -1.165493         0.408478         2.364596
 O        -3.488474         1.998834         1.952370
 C        -4.404966         1.345174         1.006356
 C        -3.655053         0.747497        -0.163684
 C        -2.482779         0.090921         0.630022
 H         0.548970         0.112578        -0.559409
 H        -0.503323         2.643939         1.176417
 H        -1.696193         2.314929        -0.268926
 H        -0.329493         0.895111         2.829685
 H        -1.579965        -0.667517         2.781383
 H        -4.898800         0.489837         1.483293
 H        -5.149872         2.053199         0.679492
 H        -4.295372        -0.090182        -0.639261
 H        -3.469909         1.503823        -0.944135
 H        -2.810813        -0.880035         0.947374
