19
Iteration:  2079
 O         0.189632        -0.318700         0.179927
 C        -0.915104         0.388214         0.739015
 C        -1.218711         1.921658         0.736899
 C        -2.292815         1.278590         1.648629
 C        -1.158369         0.458197         2.359081
 O        -3.534001         1.952935         1.947114
 C        -4.416358         1.298518         1.020005
 C        -3.571694         0.731744        -0.149063
 C        -2.501180         0.129587         0.627970
 H         0.403783         0.080187        -0.635063
 H        -0.513702         2.526771         1.252553
 H        -1.472484         2.364287        -0.191569
 H        -0.522121         1.092830         2.883926
 H        -1.741691        -0.433488         2.841226
 H        -5.056521         0.455270         1.464263
 H        -5.162952         2.122837         0.867833
 H        -4.208604         0.355426        -0.833251
 H        -3.235684         1.515274        -0.803581
 H        -2.746778        -0.909130         0.967089
