19
Iteration:    20charge 0 multiplicity 1
 O         0.038692        -0.280463         0.011576
 C        -0.946384         0.426865         0.820628
 C        -1.096590         1.892421         0.781875
 C        -2.344609         1.203626         1.755193
 C        -1.134350         0.454830         2.455338
 O        -3.611628         1.813327         1.971581
 C        -4.479084         1.331777         0.845882
 C        -3.437079         0.905274        -0.218386
 C        -2.466845         0.120390         0.680048
 H         0.855479        -0.190381         0.567955
 H        -0.363203         2.510698         1.236120
 H        -1.347059         2.407369        -0.251701
 H        -0.425407         1.100726         2.866760
 H        -1.388760        -0.494470         3.060379
 H        -5.131596         0.444630         1.169801
 H        -5.151091         2.101109         0.494588
 H        -3.859698         0.422636        -1.095394
 H        -3.034741         1.799962        -0.578382
 H        -2.799861        -0.856229         0.982295
