19
Iteration:  1249
 O        -0.013979        -0.315785         0.059537
 C        -0.909134         0.445115         0.788143
 C        -1.323455         1.997304         0.767241
 C        -2.267580         1.337330         1.623612
 C        -1.190310         0.534836         2.399825
 O        -3.543514         1.718632         2.083100
 C        -4.325663         1.523445         0.874430
 C        -3.502913         0.570586        -0.183047
 C        -2.351210         0.039955         0.680273
 H         0.732361         0.278297        -0.143238
 H        -0.578977         2.628278         1.222373
 H        -1.561924         2.332879        -0.231054
 H        -0.424801         1.203130         2.987823
 H        -1.621926        -0.331788         2.912020
 H        -5.308527         1.185002         1.172470
 H        -4.585514         2.567474         0.524873
 H        -4.140363        -0.183920        -0.627977
 H        -3.271108         1.199222        -1.013107
 H        -2.543482        -0.919853         1.143701
