19
Iteration:  2387
 O         0.182778        -0.234405         0.151854
 C        -0.945824         0.359496         0.857560
 C        -1.103110         1.830170         0.734730
 C        -2.283098         1.290387         1.663555
 C        -1.142199         0.489167         2.365424
 O        -3.479554         1.881293         1.890666
 C        -4.517806         1.378328         1.044917
 C        -3.641206         0.724278        -0.248742
 C        -2.533820         0.164403         0.678833
 H         0.230871         0.160797        -0.689683
 H        -0.331628         2.419641         1.232235
 H        -1.474039         2.061351        -0.270448
 H        -0.439503         1.048675         2.956700
 H        -1.218533        -0.630918         2.821596
 H        -4.992490         0.540585         1.506317
 H        -5.241655         2.182168         0.810062
 H        -4.243595        -0.097182        -0.864953
 H        -3.333540         1.712106        -0.808915
 H        -2.861942        -0.781940         1.106816
