19
Iteration:  1322
 O         0.094981        -0.261350         0.124805
 C        -0.911036         0.482295         0.783912
 C        -1.259690         1.900807         0.630900
 C        -2.256116         1.195229         1.730037
 C        -1.141512         0.487409         2.477960
 O        -3.447974         1.836422         1.987049
 C        -4.448546         1.417501         0.952639
 C        -3.636613         0.672383        -0.236371
 C        -2.466370         0.119470         0.596804
 H         0.946719        -0.038277         0.651717
 H        -0.592944         2.753665         1.060667
 H        -1.693076         2.252252        -0.277038
 H        -0.554309         1.191609         3.108887
 H        -1.297528        -0.489662         2.740533
 H        -5.233272         0.846853         1.580818
 H        -4.972539         2.334549         0.668707
 H        -4.274269        -0.089839        -0.919310
 H        -3.314080         1.477312        -0.912964
 H        -2.590591        -0.946347         0.908447
