19
Iteration:  1200charge 0 multiplicity 1
 O         0.184279        -0.208472         0.069829
 C        -0.893120         0.368505         0.813550
 C        -1.338976         1.885818         0.690013
 C        -2.314054         1.269971         1.645461
 C        -1.082712         0.531291         2.392862
 O        -3.569632         1.671166         2.083226
 C        -4.333846         1.697803         0.829789
 C        -3.663726         0.559199        -0.132846
 C        -2.470840         0.021108         0.661937
 H         0.995085         0.199223         0.498363
 H        -0.828065         2.706772         1.229825
 H        -1.899729         2.242658        -0.242253
 H        -0.274708         1.208502         2.763016
 H        -1.339013        -0.368717         3.060800
 H        -5.450003         1.717812         1.129741
 H        -4.141336         2.674792         0.369332
 H        -4.196223        -0.326109        -0.561193
 H        -3.362623         1.231360        -1.038649
 H        -2.835035        -0.908659         1.165903
