19
Iteration:  2945
 O         0.142290        -0.219687         0.038389
 C        -0.847412         0.457124         0.802556
 C        -1.251842         1.924262         0.693910
 C        -2.283748         1.260213         1.707489
 C        -1.101102         0.552583         2.349008
 O        -3.587277         1.724860         2.073188
 C        -4.439866         1.592414         0.763176
 C        -3.602919         0.546692        -0.065474
 C        -2.456348         0.109426         0.744285
 H        -0.096360        -1.136042        -0.088089
 H        -0.522665         2.681910         1.085150
 H        -1.479518         2.419100        -0.233598
 H        -0.286037         1.125737         3.003085
 H        -1.474297        -0.375668         2.867418
 H        -5.386876         1.262278         1.155059
 H        -4.245520         2.497272         0.226930
 H        -4.230395        -0.270448        -0.311247
 H        -3.339558         1.029359        -1.059101
 H        -2.682694        -0.829244         1.265370
