19
Iteration:   456
 O         0.102107        -0.205542         0.078373
 C        -0.910604         0.407131         0.835769
 C        -1.183670         1.995668         0.822196
 C        -2.264488         1.323166         1.679475
 C        -1.170495         0.459204         2.426548
 O        -3.516598         1.728499         1.965355
 C        -4.402092         1.472661         0.866655
 C        -3.575373         0.564094        -0.210010
 C        -2.443193         0.180629         0.672593
 H        -0.314754        -0.510315        -0.807989
 H        -0.499464         2.598745         1.441137
 H        -1.317542         2.424244        -0.115636
 H        -0.443610         0.988049         3.064214
 H        -1.658062        -0.345935         2.853148
 H        -5.211434         0.835443         1.260786
 H        -4.815007         2.390246         0.512236
 H        -4.294002        -0.246215        -0.549024
 H        -3.341316         1.184067        -1.081565
 H        -2.729878        -0.717800         1.239597
