19
Iteration:  3687charge 0 multiplicity 1
 O         0.044394        -0.328767         0.089236
 C        -0.932110         0.423240         0.844609
 C        -1.286447         2.008620         0.623986
 C        -2.321010         1.318278         1.699357
 C        -1.047187         0.628369         2.391843
 O        -3.603647         1.665829         2.049741
 C        -4.289855         1.569673         0.810889
 C        -3.498090         0.536522        -0.137383
 C        -2.432350         0.093396         0.811367
 H        -0.448305        -0.373972        -0.739909
 H        -0.559360         2.765280         0.990639
 H        -1.730641         2.393326        -0.310730
 H        -0.303487         1.390718         2.715959
 H        -1.279486        -0.236244         3.105895
 H        -5.301026         1.151378         1.019452
 H        -4.261162         2.494140         0.246023
 H        -4.184703        -0.295367        -0.407652
 H        -3.244068         0.996664        -1.020552
 H        -2.717373        -0.826417         1.284457
