19
Iteration:  3525charge 0 multiplicity 1
 O        -0.008811        -0.295444         0.150467
 C        -0.947831         0.433843         0.741822
 C        -1.237610         1.930101         0.697969
 C        -2.255418         1.293796         1.702427
 C        -1.140685         0.613009         2.395640
 O        -3.498644         1.748580         1.997268
 C        -4.349409         1.491962         0.880316
 C        -3.574332         0.602404        -0.201322
 C        -2.439854         0.086688         0.669941
 H         0.916622        -0.076151         0.335882
 H        -0.444735         2.652580         0.999453
 H        -1.675146         2.312991        -0.255672
 H        -0.377983         1.193717         2.766737
 H        -1.436394        -0.184737         3.052053
 H        -5.016295         0.833873         1.377829
 H        -4.740136         2.446558         0.664348
 H        -4.315636        -0.250323        -0.441590
 H        -3.427052         0.993097        -1.137220
 H        -2.689583        -0.799638         1.264006
