19
Iteration:  4984charge 0 multiplicity 1
 O         0.083485        -0.248295         0.187491
 C        -0.950200         0.383206         0.749603
 C        -1.266455         1.873005         0.574554
 C        -2.233136         1.308405         1.633588
 C        -1.125069         0.643314         2.396747
 O        -3.476106         1.851077         2.027282
 C        -4.452537         1.408457         1.005241
 C        -3.593459         0.655614        -0.155837
 C        -2.465713         0.005291         0.731250
 H         0.040177        -0.517774        -0.709549
 H        -0.431655         2.542396         0.959975
 H        -1.623531         2.236801        -0.455768
 H        -0.153639         1.254211         2.668534
 H        -1.255076        -0.241429         3.074420
 H        -5.259904         0.876379         1.327604
 H        -4.738326         2.326914         0.658721
 H        -4.071245        -0.100567        -0.712195
 H        -3.118010         1.385012        -0.973444
 H        -2.732623        -0.935873         1.147234
