19
Iteration:  3956
 O         0.085485        -0.330427         0.165639
 C        -0.959644         0.476575         0.746541
 C        -1.254630         1.991523         0.532111
 C        -2.262238         1.276196         1.689342
 C        -1.117742         0.699577         2.311600
 O        -3.545777         1.892266         2.079336
 C        -4.361693         1.286519         0.917921
 C        -3.589260         0.620572        -0.161754
 C        -2.454233         0.056948         0.717399
 H         0.243811        -0.991582         0.907242
 H        -0.469935         2.526421         1.131548
 H        -1.445722         2.487879        -0.420924
 H        -0.295060         1.226185         2.857534
 H        -1.280282        -0.310554         2.742095
 H        -5.046188         0.624584         1.368540
 H        -5.046418         2.103032         0.566072
 H        -4.098907        -0.177753        -0.638087
 H        -3.206980         1.354966        -0.915730
 H        -2.662218        -0.923667         1.076403
