19
Iteration:  1105charge 0 multiplicity 1
 O         0.042319        -0.199652         0.091549
 C        -0.910398         0.409997         0.895281
 C        -1.360763         1.896972         0.623210
 C        -2.233629         1.246102         1.658296
 C        -1.188089         0.522445         2.406277
 O        -3.486713         1.688684         2.084019
 C        -4.240253         1.599750         0.827004
 C        -3.561875         0.597178        -0.209815
 C        -2.500361         0.057689         0.729849
 H         0.697546         0.445020        -0.086266
 H        -0.819463         2.718512         1.128359
 H        -1.800981         2.072569        -0.296244
 H        -0.401776         1.111159         3.078676
 H        -1.365630        -0.322982         3.027599
 H        -5.283796         1.208623         1.020083
 H        -4.232249         2.544992         0.257320
 H        -4.356054        -0.071475        -0.671019
 H        -3.209575         1.115500        -1.053462
 H        -2.836808        -0.819919         1.262910
