19
Iteration:  4216
 O         0.162044        -0.327173         0.232538
 C        -0.902736         0.464839         0.742848
 C        -1.167623         1.989174         0.538151
 C        -2.191005         1.377361         1.621795
 C        -1.108676         0.604607         2.377609
 O        -3.519296         1.819413         1.919642
 C        -4.496622         1.261077         1.029611
 C        -3.720229         0.666397        -0.147026
 C        -2.424024         0.172042         0.678126
 H        -0.040556        -1.193557         0.559076
 H        -0.464230         2.796208         0.853870
 H        -1.718300         2.200075        -0.367373
 H        -0.380503         1.031925         3.110279
 H        -1.421810        -0.357920         2.816336
 H        -5.062489         0.440744         1.526593
 H        -5.231936         2.139076         0.853117
 H        -4.236207        -0.226093        -0.511186
 H        -3.499192         1.494541        -0.884905
 H        -2.751541        -0.821047         1.143794
