19
Iteration:   405charge 0 multiplicity 1
 O         0.145767        -0.264474         0.126879
 C        -0.876293         0.363658         0.820312
 C        -1.273791         1.938750         0.764832
 C        -2.237163         1.257933         1.668098
 C        -1.165215         0.508629         2.383326
 O        -3.532505         1.803700         2.053107
 C        -4.454715         1.324186         0.910485
 C        -3.573768         0.862159        -0.273062
 C        -2.480095         0.149437         0.585272
 H         0.629155        -0.945853         0.658925
 H        -0.404442         2.586627         1.050497
 H        -1.792866         2.193822        -0.159137
 H        -0.431027         1.194662         2.896283
 H        -1.243806        -0.510063         2.825190
 H        -5.177075         0.517677         1.135009
 H        -5.079103         2.171407         0.652116
 H        -4.149499         0.185066        -0.800760
 H        -3.282318         1.636801        -0.982338
 H        -2.810451        -0.714066         1.166162
