19
Iteration:   420charge 0 multiplicity 1
 O         0.167248        -0.268303         0.088518
 C        -0.912794         0.425684         0.789832
 C        -1.266779         1.903308         0.708127
 C        -2.382728         1.237807         1.729693
 C        -1.052735         0.498144         2.358708
 O        -3.620330         1.793013         2.031015
 C        -4.403453         1.405153         0.905853
 C        -3.485849         0.832814        -0.261318
 C        -2.447261         0.150836         0.708771
 H         0.070597        -1.257947         0.401823
 H        -0.759040         2.668539         1.294322
 H        -1.513490         2.354516        -0.364701
 H        -0.303607         1.018889         2.966454
 H        -1.413038        -0.353563         3.080084
 H        -4.837277         0.474116         1.311498
 H        -5.210527         2.240826         0.704010
 H        -4.099414         0.069312        -0.900773
 H        -3.076107         1.611408        -0.947540
 H        -2.850545        -0.863432         0.898288
