19
Iteration:  1476charge 0 multiplicity 1
 O         0.043369        -0.304553         0.193377
 C        -0.903393         0.485913         0.756378
 C        -1.268113         1.964111         0.683963
 C        -2.341979         1.194948         1.619023
 C        -1.077463         0.524358         2.272455
 O        -3.562747         1.696873         2.100493
 C        -4.347965         1.607106         0.869731
 C        -3.569089         0.640987        -0.134485
 C        -2.441841         0.083558         0.659936
 H         0.865407         0.128148         0.342338
 H        -0.518964         2.581681         1.247002
 H        -1.751779         2.323571        -0.274398
 H        -0.485799         1.330681         2.805128
 H        -1.123617        -0.351804         2.823620
 H        -5.207447         1.024415         1.132565
 H        -4.733986         2.548019         0.496723
 H        -4.324367        -0.202324        -0.383023
 H        -3.074848         1.114254        -1.015999
 H        -2.605611        -0.995348         1.036318
