19
Iteration:  3942
 O         0.100405        -0.324046         0.246917
 C        -0.910556         0.450835         0.716005
 C        -1.209721         1.937582         0.594905
 C        -2.330373         1.321982         1.551473
 C        -1.120832         0.662651         2.315221
 O        -3.476018         1.802831         2.001814
 C        -4.483014         1.346488         1.091532
 C        -3.602131         0.637636        -0.203406
 C        -2.420497         0.092102         0.624626
 H         0.488447        -0.828520         0.924524
 H        -0.518834         2.649879         1.079281
 H        -1.641591         2.252472        -0.414427
 H        -0.450281         1.482938         2.764780
 H        -1.412263        -0.093795         3.101888
 H        -4.933073         0.534675         1.583047
 H        -5.000107         2.207420         0.741793
 H        -4.289805        -0.032530        -0.653635
 H        -3.325195         1.382506        -0.901553
 H        -2.643640        -0.810111         1.137755
