19
Iteration:  2595charge 0 multiplicity 1
 C         0.164558         1.050257        -0.085936
 C         1.562194         0.258040        -0.004062
 C         2.476591        -0.128999        -1.158999
 C         3.388801        -0.453957         0.198832
 C         2.576931        -1.710194         0.613413
 O         1.293488        -1.125557         0.408311
 O         4.697613         0.218696         0.151081
 C         3.975094         1.450902         0.270097
 C         2.726050         0.717852         0.777379
 H        -0.425042         0.946767         0.835913
 H         0.478563         2.168611        -0.298615
 H        -0.506200         0.825071        -0.969872
 H         2.117428        -1.006875        -1.771791
 H         2.941803         0.614662        -1.844357
 H         2.778859        -2.665136         0.012262
 H         2.888533        -1.827122         1.705798
 H         4.413366         2.088293         0.952272
 H         3.705955         1.849017        -0.693628
 H         2.596988         0.817255         1.890498
