19
Iteration:  4377
 C         0.247582         1.083955        -0.086481
 C         1.489856         0.263808        -0.020262
 C         2.460081        -0.109303        -1.165851
 C         3.369386        -0.465218         0.102192
 C         2.662043        -1.685914         0.604303
 O         1.288872        -1.156666         0.514939
 O         4.701433         0.144325         0.079169
 C         3.929289         1.472889         0.365872
 C         2.650068         0.764207         0.761252
 H        -0.306955         1.031924         0.864289
 H         0.551311         2.068484        -0.455108
 H        -0.500220         0.678007        -0.872996
 H         2.011196        -0.920032        -1.752117
 H         2.872685         0.646153        -1.919919
 H         2.815226        -2.464185        -0.224944
 H         2.998514        -2.005952         1.648028
 H         4.467371         1.943659         1.269527
 H         4.135958         2.192035        -0.520715
 H         2.695594         0.640275         1.823613
