19
Iteration:  3429
 C         0.083024         0.872163        -0.176355
 C         1.464179         0.307535        -0.068566
 C         2.347119        -0.033721        -1.230914
 C         3.346005        -0.394035         0.007118
 C         2.702475        -1.581359         0.621787
 O         1.389885        -1.004057         0.539883
 O         4.675982         0.074867         0.130692
 C         4.191600         1.323642         0.470685
 C         2.619527         0.798438         0.790348
 H        -0.428897         0.678982         0.762578
 H         0.015881         1.932434        -0.259960
 H        -0.396695         0.349945        -1.012491
 H         2.028528        -0.929562        -1.843798
 H         2.843163         0.786272        -1.743372
 H         2.811451        -2.426974        -0.029285
 H         2.888447        -1.894399         1.614160
 H         4.545444         1.718863         1.401892
 H         4.303542         2.193660        -0.325433
 H         2.578311         0.459720         1.832318
