19
Iteration:  1710charge 0 multiplicity 1
 C         0.217064         1.026892        -0.163111
 C         1.493364         0.175739        -0.173610
 C         2.509357        -0.117761        -1.170374
 C         3.336129        -0.447549         0.034861
 C         2.683120        -1.633832         0.522105
 O         1.310001        -1.104276         0.585409
 O         4.670946         0.199256         0.133525
 C         3.931508         1.446613         0.514849
 C         2.652911         0.715778         0.821377
 H        -0.289935         1.238131         0.798751
 H         0.551028         1.964607        -0.659485
 H        -0.410550         0.563236        -0.954780
 H         2.293298        -0.968215        -1.808191
 H         2.971111         0.811469        -1.695982
 H         2.602027        -2.491692        -0.173269
 H         3.098615        -1.854358         1.608534
 H         4.540716         2.023419         1.319269
 H         3.935421         2.088389        -0.399354
 H         2.416981         0.621051         1.927203
