19
Iteration:   706
 C         0.177250         0.971131        -0.212282
 C         1.497998         0.213054        -0.011680
 C         2.527655        -0.058380        -1.217408
 C         3.350965        -0.378372         0.146240
 C         2.632907        -1.712999         0.532455
 O         1.320203        -1.172792         0.486897
 O         4.691357         0.230113         0.079786
 C         3.948689         1.511538         0.486067
 C         2.693473         0.704827         0.861699
 H        -0.435385         0.804905         0.646666
 H         0.264797         2.092685        -0.346532
 H        -0.326223         0.611243        -1.183502
 H         2.189275        -0.932869        -1.866346
 H         2.957370         0.837907        -1.609630
 H         2.814574        -2.570672        -0.204704
 H         2.898940        -1.995557         1.627416
 H         4.491427         2.047990         1.292071
 H         3.888276         2.193272        -0.330633
 H         2.414384         0.493007         1.983406
