19
Iteration:  4632charge 0 multiplicity 1
 C         0.171509         0.976704        -0.126335
 C         1.503668         0.210645        -0.048950
 C         2.479705        -0.047462        -1.250294
 C         3.348568        -0.410860        -0.052038
 C         2.693065        -1.671088         0.537125
 O         1.278489        -1.030693         0.589953
 O         4.636237         0.108394         0.118530
 C         4.108105         1.448253         0.412268
 C         2.643480         0.707037         0.889893
 H        -0.230326         0.913485         0.899333
 H         0.233560         1.888955        -0.758182
 H        -0.644479         0.452323        -0.566085
 H         2.294275        -0.762842        -2.076649
 H         2.860636         0.908224        -1.626213
 H         2.670697        -2.609799         0.033404
 H         2.909004        -1.687813         1.592711
 H         4.430783         1.900925         1.324837
 H         4.080074         2.103409        -0.412012
 H         2.670336         0.599252         2.008529
