19
Iteration:   136
 C         0.140438         0.897092        -0.193549
 C         1.578632         0.352239         0.034891
 C         2.448450        -0.046994        -1.289642
 C         3.433790        -0.388184        -0.057445
 C         2.678641        -1.657882         0.565467
 O         1.253308        -1.120545         0.507441
 O         4.717632         0.186489         0.184780
 C         3.921103         1.485631         0.475517
 C         2.722123         0.635405         0.913762
 H        -0.312927         1.233221         0.729768
 H         0.132813         1.775891        -0.790955
 H        -0.450811         0.086129        -0.561477
 H         2.038956        -0.977198        -1.867465
 H         2.527292         0.917269        -1.934876
 H         2.722109        -2.455231        -0.247932
 H         3.130731        -2.028535         1.522068
 H         4.459888         2.060297         1.262166
 H         3.860495         2.033262        -0.394533
 H         2.570684         0.484042         1.920405
