19
Iteration:  3646charge 0 multiplicity 1
 C         0.233575         1.095364        -0.095157
 C         1.491683         0.272461        -0.077961
 C         2.475349        -0.142704        -1.245637
 C         3.326369        -0.458324         0.132498
 C         2.690949        -1.701299         0.670560
 O         1.257638        -1.123494         0.413483
 O         4.661314         0.174697         0.033577
 C         3.986221         1.488381         0.406277
 C         2.749508         0.704692         0.912688
 H        -0.188724         1.263444         0.901965
 H         0.289623         1.954237        -0.799096
 H        -0.463924         0.422029        -0.650474
 H         2.116397        -1.049441        -1.861061
 H         2.933288         0.635448        -1.897414
 H         2.761889        -2.699147         0.109655
 H         2.764250        -1.853367         1.755454
 H         4.479508         1.953252         1.287966
 H         3.753888         2.387424        -0.342838
 H         2.695093         0.572538         1.994680
