19
Iteration:   184charge 0 multiplicity 1
 C         0.115579         0.820439        -0.239337
 C         1.475923         0.325069        -0.018757
 C         2.416170        -0.019684        -1.143657
 C         3.339522        -0.337927        -0.006426
 C         2.718708        -1.606768         0.498657
 O         1.302823        -1.154796         0.568394
 O         4.679578         0.128576         0.049654
 C         4.123835         1.381651         0.590113
 C         2.654946         0.866029         0.798386
 H        -0.554654         0.500425         0.671750
 H        -0.008224         1.912073        -0.299215
 H        -0.275808         0.182419        -1.071305
 H         2.215087        -0.814236        -1.878206
 H         2.842086         0.899863        -1.607656
 H         2.781763        -2.558599        -0.172213
 H         3.047517        -1.780788         1.584458
 H         4.570712         1.683672         1.477423
 H         4.251838         2.175648        -0.216232
 H         2.562339         0.586315         1.968510
