19
Iteration:  3643charge 0 multiplicity 1
 C         0.241681         1.083763        -0.104259
 C         1.478926         0.315830        -0.101861
 C         2.474373        -0.145043        -1.239564
 C         3.368985        -0.457196         0.109024
 C         2.691213        -1.719866         0.667018
 O         1.253980        -1.126598         0.424453
 O         4.662423         0.182510         0.035869
 C         3.965148         1.473130         0.424357
 C         2.739398         0.683871         0.912691
 H        -0.173066         1.361066         0.884178
 H         0.331433         2.003005        -0.646034
 H        -0.421965         0.420608        -0.642146
 H         2.119333        -1.006392        -1.701943
 H         2.901876         0.543734        -1.908891
 H         2.745176        -2.717340         0.143399
 H         2.752725        -1.859417         1.769281
 H         4.581983         2.009891         1.205545
 H         3.623195         2.388654        -0.352324
 H         2.648753         0.654819         1.964581
