19
Iteration:  2293charge 0 multiplicity 1
 C         0.261026         1.020260        -0.153469
 C         1.508930         0.291066        -0.068100
 C         2.421382        -0.136323        -1.225142
 C         3.366550        -0.433235         0.032567
 C         2.677542        -1.610907         0.603225
 O         1.263602        -1.172818         0.520441
 O         4.621037         0.200874         0.136964
 C         4.007347         1.491513         0.411622
 C         2.717204         0.680032         0.833556
 H        -0.210193         1.127378         0.865618
 H         0.534384         2.098115        -0.518352
 H        -0.418081         0.617246        -0.922733
 H         2.165658        -1.054615        -1.842068
 H         2.923655         0.535423        -1.832924
 H         2.868237        -2.584023         0.074605
 H         2.908681        -1.783551         1.680582
 H         4.241883         2.019887         1.394571
 H         4.106030         2.031619        -0.425823
 H         2.490286         0.424009         1.891988
