19
Iteration:  4521
 C         0.228361         1.041311        -0.109091
 C         1.482520         0.266759        -0.055839
 C         2.414149        -0.119786        -1.214748
 C         3.361533        -0.464193         0.055452
 C         2.718647        -1.662600         0.538036
 O         1.305503        -1.137173         0.506667
 O         4.713624         0.146754         0.068526
 C         3.959125         1.397410         0.440470
 C         2.648746         0.803893         0.907651
 H        -0.112879         1.362537         0.936302
 H         0.681415         1.912135        -0.672158
 H        -0.640064         0.744310        -0.731858
 H         2.062846        -1.051714        -1.737502
 H         2.817919         0.504246        -1.974329
 H         2.724569        -2.534051        -0.147835
 H         3.044461        -1.812729         1.606198
 H         4.466348         2.013099         1.168775
 H         3.738773         2.163082        -0.291992
 H         2.442858         0.895849         1.993489
