19
Iteration:  4879charge 0 multiplicity 1
 C         0.079073         0.868194        -0.157440
 C         1.508133         0.330331         0.003472
 C         2.357386         0.045842        -1.212692
 C         3.365355        -0.426839        -0.003683
 C         2.578627        -1.644798         0.578560
 O         1.276044        -1.034211         0.569724
 O         4.780098         0.095531         0.100869
 C         4.171774         1.382507         0.417192
 C         2.776729         0.696144         0.810624
 H        -0.576629         0.929739         0.723692
 H        -0.031749         1.909674        -0.452163
 H        -0.131606         0.180082        -0.998582
 H         2.167401        -0.858521        -1.870353
 H         2.590676         1.024744        -1.550409
 H         2.559132        -2.580147        -0.069524
 H         2.814433        -1.644931         1.642744
 H         4.595862         1.989701         1.237494
 H         3.962922         2.090370        -0.363915
 H         2.402314         0.470774         1.836010
