19
Iteration:  4532charge 0 multiplicity 1
 C         0.236120         1.070791        -0.133342
 C         1.514248         0.214750        -0.059583
 C         2.384605        -0.132214        -1.263913
 C         3.356836        -0.331280         0.075915
 C         2.661432        -1.686857         0.550431
 O         1.356597        -1.115069         0.540276
 O         4.650823         0.138747         0.091596
 C         3.995344         1.493203         0.436037
 C         2.685472         0.697571         0.882319
 H        -0.354005         1.269036         0.842158
 H         0.432024         2.097491        -0.518155
 H        -0.399798         0.514475        -0.819147
 H         1.953938        -1.052921        -1.729581
 H         2.738612         0.616332        -1.918406
 H         2.643725        -2.618334        -0.036258
 H         3.007100        -2.030781         1.553500
 H         4.589751         1.827441         1.263914
 H         4.022725         2.044219        -0.476002
 H         2.528076         0.553303         1.969970
