19
Iteration:  4056charge 0 multiplicity 1
 C         0.189495         1.052767        -0.092929
 C         1.538996         0.308128        -0.076430
 C         2.470328        -0.127566        -1.241937
 C         3.421751        -0.528542         0.050008
 C         2.615340        -1.735686         0.627623
 O         1.234666        -1.072333         0.545780
 O         4.691120         0.176736         0.169384
 C         3.977615         1.494514         0.366761
 C         2.753233         0.687097         0.742298
 H        -0.271885         1.097523         0.898106
 H         0.399851         2.104293        -0.279804
 H        -0.466712         0.570977        -0.776539
 H         2.146184        -0.840903        -1.993448
 H         2.704680         0.803988        -1.820002
 H         2.467466        -2.664235        -0.043260
 H         2.924278        -1.930517         1.740602
 H         4.406444         2.159805         1.181821
 H         3.963161         2.052284        -0.608361
 H         2.603217         0.673997         1.850980
