19
Iteration:  4355
 C         0.203342         1.034856        -0.083999
 C         1.428203         0.180990        -0.141164
 C         2.532805        -0.074168        -1.214111
 C         3.341672        -0.443459         0.056932
 C         2.672421        -1.652897         0.574292
 O         1.295808        -1.097998         0.575740
 O         4.635173         0.153837         0.114885
 C         4.073533         1.436237         0.384910
 C         2.694879         0.699083         0.855427
 H        -0.030587         1.155137         0.978415
 H         0.500265         1.962624        -0.578426
 H        -0.737143         0.608359        -0.598665
 H         2.276665        -0.794640        -1.974514
 H         2.614839         0.857420        -1.806725
 H         2.550227        -2.560303        -0.092054
 H         3.006140        -1.733922         1.661495
 H         4.475717         2.260961         1.033241
 H         3.909024         1.971162        -0.651481
 H         2.466211         0.714647         1.890364
