19
Iteration:  3092
 C         0.127391         0.879937        -0.250737
 C         1.485127         0.284903         0.013810
 C         2.406322         0.006678        -1.210947
 C         3.312630        -0.396038        -0.007970
 C         2.596857        -1.588182         0.620095
 O         1.294641        -1.034616         0.581290
 O         4.703422         0.080314         0.026176
 C         4.123496         1.389492         0.504986
 C         2.758924         0.737269         0.814476
 H        -0.418139         0.757908         0.653267
 H         0.235276         1.944590        -0.490690
 H        -0.269785         0.161689        -0.996600
 H         2.246898        -0.780464        -1.864224
 H         2.753659         0.825034        -1.875247
 H         2.757357        -2.584078         0.449457
 H         2.956817        -1.527051         1.634900
 H         4.498163         1.575561         1.495038
 H         3.998176         2.161981        -0.298813
 H         2.830004         0.477410         1.861782
