19
Iteration:  3003charge 0 multiplicity 1
 C         0.133805         1.023795        -0.166348
 C         1.485282         0.322533         0.004811
 C         2.419264        -0.100761        -1.216584
 C         3.375212        -0.412743         0.075323
 C         2.726587        -1.658430         0.618858
 O         1.287801        -1.121367         0.487642
 O         4.699827         0.111454         0.160532
 C         4.062729         1.436853         0.384289
 C         2.681866         0.746893         0.749912
 H        -0.412396         1.222261         0.807823
 H         0.118691         2.034961        -0.502467
 H        -0.605267         0.229012        -0.513451
 H         1.980942        -0.862904        -1.886528
 H         3.007142         0.660413        -1.775273
 H         2.693342        -2.537660         0.000860
 H         2.866969        -2.016315         1.666653
 H         4.575986         1.904720         1.259825
 H         4.062029         2.155772        -0.590597
 H         2.584872         0.579784         1.854484
