19
Iteration:   716charge 0 multiplicity 1
 C         0.111411         0.903851        -0.189866
 C         1.490664         0.260708        -0.110888
 C         2.565118         0.002024        -1.132677
 C         3.412331        -0.444138         0.056996
 C         2.673179        -1.716915         0.595712
 O         1.304402        -1.111304         0.467612
 O         4.667250         0.193434         0.093699
 C         3.957950         1.524615         0.474207
 C         2.659796         0.692952         0.897267
 H        -0.573288         0.791911         0.594694
 H         0.458023         1.944946        -0.224296
 H        -0.420726         0.675538        -1.147445
 H         2.262149        -0.735906        -1.949885
 H         2.897251         0.781031        -1.759097
 H         2.667073        -2.632256        -0.094039
 H         3.041931        -2.038172         1.628396
 H         4.549170         2.047931         1.298984
 H         3.808240         2.138688        -0.422399
 H         2.606432         0.544492         2.101130
