19
Iteration:  3598charge 0 multiplicity 1
 C         0.191861         0.977260        -0.221759
 C         1.458522         0.184030        -0.038618
 C         2.443779        -0.029886        -1.179422
 C         3.373443        -0.443488         0.008075
 C         2.693473        -1.689157         0.546429
 O         1.243825        -1.105962         0.656689
 O         4.672025         0.100596         0.132975
 C         4.119584         1.508712         0.414591
 C         2.663557         0.787507         0.803705
 H        -0.334387         0.981203         0.748204
 H         0.554947         1.994907        -0.367788
 H        -0.484178         0.793711        -1.046883
 H         2.207037        -0.800075        -1.830640
 H         2.571669         0.913730        -1.665639
 H         2.650061        -2.534983        -0.171777
 H         3.078894        -2.029927         1.546838
 H         4.584700         2.183842         1.212720
 H         4.192242         2.006395        -0.739035
 H         2.281992         0.541728         1.786684
