19
Iteration:  2571
 C         0.258184         1.012281        -0.178262
 C         1.541673         0.215584        -0.067972
 C         2.446199        -0.113471        -1.200399
 C         3.325319        -0.436707         0.019687
 C         2.628652        -1.659481         0.606861
 O         1.242990        -1.081192         0.600456
 O         4.725309         0.151304         0.155434
 C         3.957834         1.515324         0.400596
 C         2.716862         0.710257         0.790514
 H        -0.164116         0.991360         0.852595
 H         0.516710         1.989461        -0.601354
 H        -0.464235         0.484756        -0.912829
 H         2.063534        -0.909019        -1.910828
 H         2.817368         0.687300        -1.778017
 H         2.784175        -2.506614        -0.091361
 H         3.073256        -1.875050         1.571354
 H         4.422251         2.087372         1.110532
 H         3.739936         2.001273        -0.526522
 H         2.509650         0.511587         1.842110
