19
Iteration:  3519charge 0 multiplicity 1
 C         0.119818         1.028323        -0.204499
 C         1.437367         0.253618        -0.072217
 C         2.390273        -0.090831        -1.192857
 C         3.371030        -0.433290         0.038786
 C         2.718381        -1.680766         0.541744
 O         1.329838        -1.095550         0.575238
 O         4.708594         0.104133         0.128982
 C         4.049716         1.443057         0.445937
 C         2.671759         0.771500         0.796802
 H        -0.094811         1.303044         0.826648
 H         0.283449         2.043382        -0.650412
 H        -0.751279         0.447521        -0.532973
 H         2.312716        -0.920770        -1.922010
 H         2.917944         0.733406        -1.699628
 H         2.743652        -2.643969         0.050364
 H         2.975018        -1.797223         1.618304
 H         4.681880         1.690824         1.363758
 H         4.160735         2.372576        -0.362049
 H         2.342768         0.640448         1.890345
