19
Iteration:  3188charge 0 multiplicity 1
 C         0.241800         1.104894        -0.076423
 C         1.513821         0.267185        -0.104351
 C         2.549437        -0.111177        -1.212871
 C         3.327848        -0.466035         0.021293
 C         2.701417        -1.649376         0.644896
 O         1.264430        -1.150096         0.524793
 O         4.670305         0.198007         0.006160
 C         3.917922         1.415590         0.453179
 C         2.645790         0.676766         0.835043
 H        -0.161059         1.400932         0.918060
 H         0.518617         2.022498        -0.637823
 H        -0.579078         0.420561        -0.555878
 H         2.228367        -0.931951        -1.871646
 H         3.170984         0.658745        -1.812833
 H         2.864409        -2.744852         0.248088
 H         2.928808        -1.618415         1.777070
 H         4.381594         1.793444         1.323594
 H         3.885940         2.164640        -0.410592
 H         2.314945         0.719987         1.887176
