19
Iteration:  3137charge 0 multiplicity 1
 C         0.087117         0.926142        -0.175179
 C         1.512687         0.314544        -0.044705
 C         2.458102        -0.100975        -1.114663
 C         3.361817        -0.353295         0.020199
 C         2.613897        -1.660577         0.506899
 O         1.335762        -1.100112         0.578350
 O         4.686446         0.046037         0.165909
 C         4.094082         1.459478         0.366733
 C         2.696618         0.863072         0.834400
 H        -0.330698         0.893636         0.797149
 H         0.151752         1.986854        -0.532301
 H        -0.485044         0.348986        -0.862761
 H         2.190705        -0.877751        -1.758698
 H         2.675969         0.687152        -1.775400
 H         2.577384        -2.381780        -0.237523
 H         2.889314        -2.233587         1.345202
 H         4.597902         1.888497         1.228860
 H         4.177324         1.888819        -0.632978
 H         2.598833         0.794796         1.898764
