19
Iteration:  2905
 C         0.189383         1.045984        -0.146641
 C         1.452143         0.244767        -0.038319
 C         2.521692        -0.022336        -1.112461
 C         3.359710        -0.464731         0.052756
 C         2.653726        -1.740122         0.568694
 O         1.329802        -1.161870         0.563288
 O         4.636502         0.135366         0.111862
 C         4.039568         1.490410         0.280517
 C         2.614930         0.782822         0.823747
 H        -0.276942         1.319342         0.844042
 H         0.475143         2.023719        -0.498997
 H        -0.672083         0.552389        -0.753258
 H         2.278794        -0.737951        -1.941387
 H         2.975325         0.791222        -1.633869
 H         2.819197        -2.710984         0.029327
 H         2.877280        -2.023936         1.666897
 H         4.503230         1.849044         1.212024
 H         4.205915         2.101282        -0.716229
 H         2.663547         0.723614         1.946345
