19
Iteration:  1907
 C         0.101404         0.946000        -0.214813
 C         1.489738         0.244768        -0.137887
 C         2.526746         0.015860        -1.175820
 C         3.359962        -0.455130         0.008338
 C         2.626770        -1.677424         0.560742
 O         1.347410        -1.052987         0.623759
 O         4.687057         0.154970         0.164554
 C         3.995526         1.400019         0.423759
 C         2.699137         0.716402         0.819616
 H        -0.415889         0.727322         0.716323
 H         0.306410         1.947103        -0.293828
 H        -0.489613         0.520474        -0.985364
 H         2.433342        -0.759547        -1.972540
 H         2.806722         0.885208        -1.629845
 H         2.739239        -2.515403        -0.129029
 H         2.764948        -2.049095         1.596195
 H         4.498222         1.951176         1.362905
 H         4.179391         2.170330        -0.380995
 H         2.324397         0.713983         1.794982
