19
Iteration:  2891charge 0 multiplicity 1
 C         0.169330         1.087302        -0.101588
 C         1.499410         0.283014        -0.085998
 C         2.457252        -0.045911        -1.260585
 C         3.332441        -0.428014         0.138586
 C         2.676269        -1.706397         0.702116
 O         1.281139        -1.200176         0.470106
 O         4.716322         0.174349         0.103183
 C         4.012145         1.409836         0.369208
 C         2.717985         0.694830         0.815664
 H        -0.155638         1.311124         0.963279
 H         0.364826         2.039008        -0.657733
 H        -0.633623         0.515860        -0.588799
 H         2.208008        -0.816399        -2.006629
 H         2.790005         0.912632        -1.610726
 H         2.763190        -2.558221         0.065398
 H         2.949161        -1.920835         1.721945
 H         4.564988         2.144154         0.883247
 H         3.687595         2.054105        -0.648447
 H         2.415012         0.697656         1.873422
