19
Iteration:  1158charge 0 multiplicity 1
 C         0.212807         0.961691        -0.160050
 C         1.464951         0.233178        -0.116248
 C         2.455455        -0.035740        -1.233033
 C         3.397458        -0.426550         0.076334
 C         2.731020        -1.686826         0.519770
 O         1.253965        -1.140008         0.537117
 O         4.683089         0.204571         0.215922
 C         4.036426         1.467533         0.460947
 C         2.625752         0.740923         0.812216
 H        -0.276173         1.279650         0.812013
 H         0.139393         1.788869        -0.861931
 H        -0.583232         0.232956        -0.473284
 H         2.182314        -0.927733        -1.874024
 H         2.902720         0.759681        -1.972393
 H         2.711742        -2.494857        -0.140715
 H         3.134238        -1.877066         1.536716
 H         4.540567         1.808224         1.299198
 H         4.070421         2.120533        -0.432516
 H         2.386885         0.736034         1.840021
