19
Iteration:   241charge 0 multiplicity 1
 C         0.230541         0.996695        -0.068403
 C         1.481901         0.173385        -0.033757
 C         2.560927        -0.006706        -1.185494
 C         3.382279        -0.353734         0.134822
 C         2.674074        -1.701974         0.510964
 O         1.321506        -1.237408         0.439206
 O         4.605114         0.165519         0.135168
 C         3.971945         1.490765         0.373731
 C         2.587336         0.823619         0.824035
 H        -0.177968         0.893296         0.921183
 H         0.385937         2.103319        -0.370601
 H        -0.497833         0.570632        -0.835200
 H         2.415980        -0.887888        -1.716376
 H         2.909312         0.802454        -1.712243
 H         2.739179        -2.547822        -0.208960
 H         2.880492        -2.135456         1.510918
 H         4.530286         1.979432         1.175586
 H         3.991876         2.176562        -0.510179
 H         2.612716         0.637706         1.979849
