19
Iteration:  4931charge 0 multiplicity 1
 C         0.178853         1.022089        -0.169566
 C         1.516345         0.253084        -0.024751
 C         2.416647        -0.037548        -1.187978
 C         3.411704        -0.491082         0.007989
 C         2.619441        -1.678445         0.588695
 O         1.286713        -1.094383         0.570451
 O         4.701855         0.168993         0.062226
 C         4.048081         1.451145         0.421676
 C         2.714053         0.711911         0.815229
 H        -0.348132         0.957814         0.829364
 H         0.418185         2.111251        -0.291231
 H        -0.687401         0.687714        -0.933054
 H         1.866656        -0.918145        -1.660316
 H         2.848977         0.805131        -1.714513
 H         2.654783        -2.578416        -0.082903
 H         2.771536        -2.081793         1.604364
 H         4.374148         1.834999         1.370873
 H         4.102112         2.142658        -0.466446
 H         2.613671         0.580353         1.898873
