19
Iteration:  2446
 C         0.258783         1.085235        -0.155827
 C         1.479428         0.320734        -0.084521
 C         2.370037        -0.202628        -1.253263
 C         3.418530        -0.405581         0.149392
 C         2.663509        -1.716586         0.610421
 O         1.314872        -1.126959         0.506345
 O         4.690513         0.206449         0.202423
 C         3.954713         1.467273         0.360536
 C         2.686586         0.670827         0.760291
 H        -0.234808         0.812579         0.832108
 H         0.578889         2.172708        -0.149139
 H        -0.401196         0.703679        -0.910890
 H         1.956947        -1.040733        -1.777360
 H         2.690192         0.630299        -1.941029
 H         2.761616        -2.560012        -0.086144
 H         2.860878        -1.996722         1.658630
 H         4.405358         2.220421         1.167736
 H         4.050306         2.094687        -0.539188
 H         2.555701         0.568758         1.858248
