19
Iteration:  4523charge 0 multiplicity 1
 C         0.220411         1.045978        -0.105264
 C         1.501445         0.235229        -0.076849
 C         2.400889        -0.117452        -1.229168
 C         3.360982        -0.419825         0.065747
 C         2.702227        -1.660849         0.533905
 O         1.317910        -1.135367         0.511905
 O         4.707270         0.140237         0.073683
 C         3.964404         1.405067         0.439093
 C         2.654357         0.787376         0.918686
 H        -0.156922         1.421465         0.890904
 H         0.655116         1.985001        -0.617297
 H        -0.537504         0.677507        -0.762429
 H         1.985151        -1.078477        -1.726167
 H         2.829903         0.469670        -1.974464
 H         2.640632        -2.613804        -0.126860
 H         3.098321        -1.855074         1.614763
 H         4.502318         2.000542         1.194020
 H         3.755756         2.235380        -0.342490
 H         2.457092         0.877670         2.022155
