19
Iteration:   800charge 0 multiplicity 1
 C         0.206552         0.877014        -0.274079
 C         1.551283         0.261390        -0.100756
 C         2.530208         0.043620        -1.196334
 C         3.331016        -0.451593         0.028557
 C         2.680415        -1.725077         0.520183
 O         1.314572        -1.087583         0.536707
 O         4.645389         0.218697         0.123774
 C         3.941418         1.445381         0.521890
 C         2.687823         0.687643         0.927801
 H        -0.078139         1.200516         0.824316
 H         0.080883         1.688322        -0.964204
 H        -0.526885         0.110598        -0.556367
 H         2.043088        -0.641576        -1.911769
 H         2.778754         0.995349        -1.546779
 H         2.508993        -2.647599         0.006649
 H         3.029365        -1.837157         1.507902
 H         4.489627         2.076688         1.320940
 H         3.799490         2.219366        -0.283998
 H         2.662332         0.585685         2.003325
