19
Iteration:  2921
 C         0.187716         0.951652        -0.191177
 C         1.513890         0.254299         0.004102
 C         2.418236        -0.093147        -1.156068
 C         3.319911        -0.402313         0.096132
 C         2.695152        -1.638126         0.501655
 O         1.296782        -1.060142         0.622642
 O         4.695235         0.092564         0.086656
 C         4.017181         1.412415         0.400159
 C         2.712384         0.783983         0.793817
 H        -0.333896         0.947403         0.742101
 H         0.376886         1.974970        -0.610675
 H        -0.347412         0.506845        -0.973478
 H         2.144760        -0.945677        -1.760449
 H         2.680427         0.817175        -1.764458
 H         2.581025        -2.325199        -0.331635
 H         3.046370        -2.051315         1.421641
 H         4.518867         1.915861         1.235190
 H         3.959542         2.027062        -0.409298
 H         2.417665         0.895950         1.821686
