19
Iteration:  1612
 C         0.130963         0.891645        -0.224335
 C         1.481082         0.233845        -0.066142
 C         2.503094        -0.030358        -1.259681
 C         3.369603        -0.403984        -0.009354
 C         2.643529        -1.648212         0.558431
 O         1.282246        -1.057467         0.617942
 O         4.710711         0.118019         0.166525
 C         3.992120         1.480734         0.507927
 C         2.693709         0.697514         0.794003
 H        -0.336442         0.946901         0.781259
 H         0.501223         1.949111        -0.490026
 H        -0.340221         0.495511        -1.147920
 H         2.339117        -0.850688        -1.916234
 H         3.023336         0.844993        -1.845465
 H         2.754939        -2.509574        -0.069115
 H         2.798733        -1.772515         1.618324
 H         4.532085         1.977024         1.321999
 H         3.849637         2.207125        -0.234781
 H         2.507123         0.595625         1.920254
