19
Iteration:  1751
 C         0.114348         0.961752        -0.251186
 C         1.467402         0.316454         0.020335
 C         2.517146        -0.072002        -1.164238
 C         3.384294        -0.424619         0.051763
 C         2.661130        -1.680051         0.642666
 O         1.304217        -1.145269         0.469248
 O         4.717455         0.159961         0.104618
 C         4.003699         1.452241         0.470544
 C         2.660613         0.691001         0.818060
 H        -0.401634         0.872516         0.675135
 H         0.268585         2.069921        -0.336414
 H        -0.485563         0.744554        -1.064981
 H         2.249362        -0.667051        -1.993404
 H         3.032258         0.831700        -1.715226
 H         2.609783        -2.533839        -0.005360
 H         2.978310        -1.749254         1.712430
 H         4.554100         2.143201         1.251596
 H         3.919675         2.091793        -0.502344
 H         2.513984         0.526805         1.838771
