19
Iteration:  4264charge 0 multiplicity 1
 C         0.146732         0.970331        -0.178315
 C         1.546708         0.341507        -0.057917
 C         2.380907        -0.062783        -1.232223
 C         3.286506        -0.435463         0.056928
 C         2.654603        -1.648141         0.586192
 O         1.330348        -1.068565         0.627516
 O         4.690218         0.164282         0.092810
 C         4.042691         1.364028         0.424133
 C         2.737404         0.689308         0.832975
 H        -0.530069         0.845188         0.758231
 H         0.208127         2.030391        -0.663152
 H        -0.306421         0.287024        -0.990240
 H         2.078003        -0.733799        -2.037177
 H         2.744413         0.815604        -1.775192
 H         2.772322        -2.565257        -0.115589
 H         3.203824        -1.897927         1.562840
 H         4.561152         1.988010         1.215043
 H         4.149018         1.962442        -0.500648
 H         2.531944         0.622231         1.942211
