19
Iteration:  1765
 C         0.131972         0.917257        -0.204731
 C         1.473850         0.190959        -0.140661
 C         2.533343         0.070815        -1.209838
 C         3.360215        -0.392239         0.068554
 C         2.643604        -1.615067         0.620897
 O         1.301177        -1.077427         0.535085
 O         4.697033         0.076853         0.115113
 C         3.979845         1.435311         0.414537
 C         2.701016         0.737706         0.895105
 H        -0.533409         0.697878         0.635271
 H         0.288506         1.947043        -0.410580
 H        -0.388396         0.416036        -1.040984
 H         2.401370        -0.768790        -1.949135
 H         2.764552         1.062436        -1.593794
 H         2.888510        -2.542185         0.089181
 H         2.785591        -1.941600         1.709797
 H         4.577306         1.782527         1.322097
 H         4.000174         2.149267        -0.421032
 H         2.645833         0.578838         2.024624
