19
Iteration:   531
 C         0.226854         0.954168        -0.207354
 C         1.546012         0.286302        -0.063417
 C         2.516879        -0.070390        -1.194644
 C         3.361455        -0.429465         0.133202
 C         2.750479        -1.743272         0.593045
 O         1.274544        -1.161800         0.417365
 O         4.610789         0.231884         0.067131
 C         4.017584         1.514999         0.473624
 C         2.590580         0.697262         0.915406
 H        -0.273588         0.783759         0.844891
 H         0.454647         2.063850        -0.205524
 H        -0.488836         0.648404        -1.050403
 H         2.141981        -0.814732        -1.942543
 H         2.778494         0.790800        -1.766467
 H         2.723414        -2.689133         0.011146
 H         3.107447        -1.860388         1.636815
 H         4.564736         1.992596         1.385515
 H         3.688268         2.245313        -0.321738
 H         2.308801         0.709732         1.949289
