19
Iteration:  3890charge 0 multiplicity 1
 C         0.201816         0.966886        -0.219278
 C         1.560909         0.306455        -0.074769
 C         2.419642        -0.070758        -1.175078
 C         3.376345        -0.447153         0.107362
 C         2.640495        -1.621599         0.594366
 O         1.337771        -1.050711         0.598167
 O         4.658289         0.102110         0.027716
 C         4.032681         1.405057         0.477560
 C         2.684523         0.743859         0.766658
 H        -0.297243         1.002300         0.738197
 H         0.226251         2.029984        -0.400601
 H        -0.477375         0.403896        -0.801849
 H         2.016736        -0.895604        -1.844685
 H         2.728746         0.714146        -1.881468
 H         2.555537        -2.483452        -0.178294
 H         2.823731        -2.215079         1.522915
 H         4.339795         1.681921         1.503111
 H         3.981747         2.367432        -0.177952
 H         2.463226         0.689675         1.879277
