19
Iteration:  4262
 C         0.153841         0.985618        -0.169454
 C         1.548127         0.333992        -0.037890
 C         2.371589        -0.081928        -1.231372
 C         3.322361        -0.416568         0.069218
 C         2.657920        -1.628803         0.569441
 O         1.316071        -1.069399         0.615151
 O         4.688160         0.157397         0.096921
 C         4.017183         1.373177         0.424295
 C         2.742730         0.688118         0.823639
 H        -0.533143         0.789628         0.768305
 H         0.220304         2.035893        -0.675978
 H        -0.283882         0.322114        -0.967700
 H         2.090382        -0.804927        -2.041903
 H         2.807834         0.808454        -1.850099
 H         2.758110        -2.611685        -0.103999
 H         3.216041        -1.929106         1.576318
 H         4.596954         1.960301         1.172589
 H         4.090260         1.899773        -0.506411
 H         2.491863         0.591066         1.964345
