19
Iteration:   869charge 0 multiplicity 1
 C         0.154615         0.860018        -0.124383
 C         1.525375         0.268617        -0.122195
 C         2.488026        -0.002088        -1.237143
 C         3.441990        -0.404822        -0.002484
 C         2.655643        -1.677217         0.559741
 O         1.338621        -1.079853         0.506639
 O         4.686911         0.130595         0.209541
 C         3.900135         1.457957         0.465335
 C         2.647115         0.769854         0.800495
 H        -0.306943         0.736477         0.837989
 H         0.230916         1.936599        -0.403527
 H        -0.516194         0.373644        -0.864097
 H         2.220739        -0.838002        -1.893016
 H         2.812074         0.953710        -1.712300
 H         2.644665        -2.593859        -0.022013
 H         2.977262        -1.867429         1.583619
 H         4.344748         2.033753         1.468855
 H         4.242919         2.212398        -0.371616
 H         2.476579         0.482597         1.939371
