19
Iteration:  3106
 C         0.102120         0.804105        -0.215372
 C         1.525949         0.322785        -0.080514
 C         2.450362         0.008150        -1.207162
 C         3.387242        -0.450915        -0.062660
 C         2.620470        -1.606506         0.657647
 O         1.273845        -0.973335         0.651311
 O         4.740654         0.082020         0.041628
 C         4.079582         1.357742         0.494228
 C         2.696124         0.755058         0.828737
 H        -0.395983         0.666782         0.720966
 H        -0.012080         1.861582        -0.550376
 H        -0.392905         0.364843        -1.009590
 H         2.024212        -0.582367        -2.073627
 H         2.767645         0.965060        -1.554671
 H         2.392204        -2.442424        -0.042499
 H         2.955308        -1.934329         1.635048
 H         4.734544         1.835787         1.365304
 H         4.242710         2.090500        -0.325025
 H         2.402942         0.660636         1.866530
