19
Iteration:  1733charge 0 multiplicity 1
 C         0.218227         1.040179        -0.193017
 C         1.539584         0.290459        -0.085680
 C         2.429150        -0.127604        -1.220198
 C         3.338000        -0.434620         0.076908
 C         2.728514        -1.725243         0.594137
 O         1.296500        -1.128258         0.476691
 O         4.675374         0.228190         0.148953
 C         3.940982         1.476576         0.461334
 C         2.690345         0.697569         0.853812
 H        -0.427101         0.928843         0.737995
 H         0.333044         2.090897        -0.412444
 H        -0.257569         0.520915        -1.113261
 H         2.043493        -1.089047        -1.654301
 H         2.710333         0.661197        -1.936465
 H         2.888124        -2.608789        -0.087173
 H         2.624680        -1.924104         1.695283
 H         4.580410         1.781047         1.303518
 H         4.051130         2.203956        -0.305512
 H         2.575140         0.739602         2.010006
