19
Iteration:   118
 C         0.231545         0.982935        -0.085940
 C         1.474094         0.190889        -0.107160
 C         2.378956        -0.069702        -1.249478
 C         3.360575        -0.417913         0.032107
 C         2.680701        -1.682989         0.481993
 O         1.378446        -1.100908         0.489375
 O         4.698253         0.239006         0.249378
 C         3.957541         1.468166         0.491485
 C         2.666760         0.692109         0.759205
 H        -0.047907         1.319864         1.026662
 H         0.342815         1.820660        -0.784502
 H        -0.633495         0.343723        -0.437535
 H         2.000169        -0.939437        -1.774227
 H         2.851002         0.741784        -1.839363
 H         2.801980        -2.657807        -0.082729
 H         2.980152        -1.905636         1.555909
 H         4.363235         2.041307         1.267701
 H         3.872967         2.166307        -0.458720
 H         2.531107         0.409269         1.936173
