19
Iteration:   750charge 0 multiplicity 1
 C         0.078672         0.774755        -0.146009
 C         1.477839         0.339427        -0.133035
 C         2.426186         0.025452        -1.294985
 C         3.357085        -0.362309         0.028968
 C         2.694826        -1.595781         0.578821
 O         1.349306        -1.164728         0.492609
 O         4.685202         0.062543         0.203730
 C         4.084082         1.526743         0.549403
 C         2.682676         0.785821         0.812079
 H        -0.574523         0.561894         0.660785
 H         0.284128         1.873086        -0.300993
 H        -0.433582         0.474469        -1.109847
 H         2.152373        -0.921583        -1.832557
 H         2.819693         0.915712        -1.817469
 H         2.701399        -2.472683        -0.144269
 H         2.753727        -1.930757         1.669816
 H         4.591213         1.925993         1.439089
 H         4.200848         2.164001        -0.325502
 H         2.626421         0.624374         1.973366
