19
Iteration:  4562charge 0 multiplicity 1
 C         0.112252         0.949572        -0.164628
 C         1.452939         0.268616        -0.019716
 C         2.482076         0.030714        -1.244221
 C         3.394164        -0.426564         0.031012
 C         2.623126        -1.698436         0.588696
 O         1.295780        -1.047039         0.634643
 O         4.784966         0.119669         0.050420
 C         4.020173         1.414585         0.413765
 C         2.678867         0.708098         0.851107
 H        -0.549682         0.600519         0.608385
 H         0.206949         1.940206        -0.533451
 H        -0.541883         0.564916        -1.018143
 H         2.176051        -0.653099        -2.009749
 H         2.865470         0.994560        -1.703517
 H         2.458903        -2.614896         0.055739
 H         3.034708        -1.788262         1.564762
 H         4.598748         1.735971         1.285306
 H         4.141481         2.004756        -0.483449
 H         2.447075         0.604439         1.901323
