19
Iteration:   428
 C         0.115633         0.953692        -0.238011
 C         1.484717         0.283570        -0.079298
 C         2.507438         0.019930        -1.210734
 C         3.441903        -0.442539         0.009283
 C         2.661870        -1.619712         0.603091
 O         1.315846        -1.189403         0.540332
 O         4.633419         0.244536         0.075197
 C         4.010582         1.473872         0.536068
 C         2.697202         0.581578         0.869820
 H        -0.347798         1.157436         0.752782
 H         0.191190         1.891944        -0.846354
 H        -0.489255         0.290523        -0.858135
 H         2.263319        -0.828932        -1.842372
 H         2.931491         0.944537        -1.673237
 H         2.811836        -2.606622        -0.003192
 H         2.885078        -1.825805         1.690324
 H         4.457192         2.022207         1.351121
 H         3.876474         2.165194        -0.246111
 H         2.489434         0.411008         2.038532
