19
Iteration:  4731
 C         0.014342         0.879905        -0.150971
 C         1.495905         0.355943        -0.014623
 C         2.429059        -0.075014        -1.231928
 C         3.304372        -0.420545        -0.053798
 C         2.606968        -1.562732         0.580429
 O         1.325117        -1.051662         0.570415
 O         4.766783         0.080501         0.133867
 C         4.122262         1.390122         0.431220
 C         2.716734         0.735308         0.835027
 H        -0.500890         0.653193         0.861129
 H         0.002105         2.036098        -0.336803
 H        -0.523443         0.428635        -1.016067
 H         2.231161        -0.738411        -2.044833
 H         2.852588         0.833907        -1.796754
 H         2.713193        -2.372355        -0.105652
 H         2.977548        -1.911828         1.555438
 H         4.734453         1.744515         1.290276
 H         4.285503         2.225008        -0.250775
 H         2.769816         0.513386         1.929004
