19
Iteration:  2939charge 0 multiplicity 1
 C         0.085648         0.893312        -0.256847
 C         1.481331         0.351887        -0.045193
 C         2.358990        -0.075396        -1.280875
 C         3.406735        -0.392943        -0.016437
 C         2.595913        -1.703326         0.569986
 O         1.357239        -0.994536         0.678446
 O         4.703581         0.140998         0.089746
 C         4.118394         1.415637         0.484117
 C         2.717299         0.713958         0.904282
 H        -0.446587         0.687324         0.694872
 H         0.130780         1.948494        -0.571389
 H        -0.444480         0.329643        -1.133095
 H         1.926440        -0.951533        -1.754929
 H         2.812000         0.724742        -1.921457
 H         2.547460        -2.583219        -0.168450
 H         2.848623        -1.943823         1.669733
 H         4.850140         2.003344         1.164838
 H         4.140006         2.174030        -0.434366
 H         2.781236         0.345993         1.957556
