19
Iteration:  2401
 C         0.170267         0.888934        -0.204978
 C         1.506104         0.219877        -0.092385
 C         2.481111         0.026361        -1.170792
 C         3.296333        -0.423738         0.074871
 C         2.667115        -1.628943         0.661310
 O         1.268915        -1.093158         0.557698
 O         4.683535         0.128044         0.024995
 C         4.085165         1.413563         0.440010
 C         2.696577         0.772032         0.817874
 H        -0.468059         0.941395         0.690124
 H         0.483696         1.938923        -0.554105
 H        -0.429742         0.449565        -0.984490
 H         2.101195        -0.856800        -1.774897
 H         2.887952         0.795725        -1.735601
 H         2.742941        -2.495631         0.033727
 H         2.803465        -1.885442         1.741029
 H         4.641732         1.844811         1.384532
 H         4.059146         2.304384        -0.222904
 H         2.394764         0.695113         1.881857
