19
Iteration:  1845
 C         0.218407         0.975781        -0.206082
 C         1.487787         0.284125        -0.016700
 C         2.538720         0.036872        -1.226267
 C         3.334196        -0.443230         0.027885
 C         2.688651        -1.696322         0.641231
 O         1.282392        -1.172708         0.518126
 O         4.668877         0.126585         0.084676
 C         3.974983         1.474562         0.475305
 C         2.642190         0.654552         0.835358
 H        -0.109236         1.426554         0.775480
 H         0.383477         1.875102        -0.884296
 H        -0.689515         0.437076        -0.654481
 H         2.392591        -0.687448        -2.076715
 H         2.989410         0.973896        -1.653262
 H         3.069870        -2.469742        -0.028518
 H         2.820795        -1.826351         1.722053
 H         4.326981         1.955823         1.316049
 H         3.921459         2.162773        -0.360298
 H         2.341354         0.952725         1.926625
