19
Iteration:   906
 C         0.008971         0.822119        -0.277464
 C         1.485495         0.274275        -0.003997
 C         2.470379         0.022062        -1.121630
 C         3.366805        -0.369342         0.082596
 C         2.673076        -1.674526         0.557961
 O         1.346728        -1.110636         0.458506
 O         4.702065         0.064896         0.108766
 C         4.098461         1.538461         0.496950
 C         2.683094         0.819078         0.853257
 H        -0.643049         0.530750         0.561741
 H         0.040833         1.905085        -0.217674
 H        -0.475947         0.393067        -1.145579
 H         2.344711        -0.838576        -1.802391
 H         2.683591         0.904424        -1.745710
 H         2.785157        -2.507350        -0.213352
 H         2.795207        -2.044751         1.663099
 H         4.618448         1.775922         1.359466
 H         4.180929         2.204769        -0.382144
 H         2.744840         0.733770         1.890631
