19
Iteration:  4013
 C         0.102965         0.968053        -0.296121
 C         1.496748         0.354996        -0.006808
 C         2.472376        -0.014896        -1.184109
 C         3.274151        -0.409430        -0.024940
 C         2.705067        -1.668689         0.600477
 O         1.349231        -1.056945         0.644320
 O         4.617247         0.002971         0.044847
 C         4.091236         1.426769         0.458816
 C         2.701155         0.768233         0.873056
 H        -0.453351         1.004865         0.627306
 H        -0.144122         1.821094        -0.892105
 H        -0.310811         0.087888        -0.745309
 H         2.281521        -0.791840        -1.895455
 H         2.977243         0.927762        -1.480781
 H         2.698368        -2.537881        -0.167054
 H         3.099894        -1.861832         1.672564
 H         4.838262         1.704056         1.287412
 H         4.163889         2.227010        -0.353499
 H         2.546238         0.691192         1.973700
