19
Iteration:  1539charge 0 multiplicity 1
 C         0.136432         0.930610        -0.150533
 C         1.533027         0.266391        -0.100404
 C         2.494857        -0.075546        -1.263781
 C         3.351963        -0.419755         0.079793
 C         2.687370        -1.661170         0.565977
 O         1.283230        -1.047322         0.508248
 O         4.698893         0.156264         0.174370
 C         3.964330         1.438587         0.499559
 C         2.680874         0.715727         0.825139
 H        -0.324683         0.996941         0.859086
 H         0.404199         1.809288        -0.682486
 H        -0.421672         0.285559        -0.874461
 H         2.120488        -0.788921        -2.008351
 H         2.847025         0.794177        -1.847439
 H         2.567688        -2.607950        -0.064034
 H         3.179685        -1.782965         1.579066
 H         4.401022         2.030686         1.276267
 H         4.093664         2.065719        -0.494763
 H         2.519959         0.626734         1.966267
