19
Iteration:  2295
 C         0.246873         1.023877        -0.159413
 C         1.510320         0.302658        -0.053362
 C         2.420819        -0.147172        -1.222615
 C         3.367802        -0.425472         0.044656
 C         2.679457        -1.599943         0.604234
 O         1.267829        -1.179508         0.502553
 O         4.622224         0.203568         0.134827
 C         4.014958         1.488372         0.430122
 C         2.707265         0.669231         0.818466
 H        -0.197827         1.163749         0.867291
 H         0.519585         2.054733        -0.505875
 H        -0.421434         0.623781        -0.868330
 H         2.178563        -1.100847        -1.726106
 H         2.930401         0.538449        -1.863712
 H         2.806405        -2.601949         0.082202
 H         2.901509        -1.774933         1.640123
 H         4.327941         2.037850         1.344347
 H         4.084188         2.054007        -0.499330
 H         2.544088         0.391108         1.881115
