19
Iteration:  4568charge 0 multiplicity 1
 C         0.093630         0.912154        -0.190170
 C         1.460481         0.280896        -0.011436
 C         2.492055         0.057662        -1.267893
 C         3.392235        -0.409152         0.060560
 C         2.589945        -1.659913         0.606943
 O         1.336243        -1.037186         0.622850
 O         4.757332         0.067857         0.021124
 C         4.059819         1.414734         0.427739
 C         2.642651         0.700549         0.871101
 H        -0.503239         0.640384         0.726959
 H         0.097985         2.043217        -0.363349
 H        -0.357025         0.410514        -1.046830
 H         2.348718        -0.733457        -2.060059
 H         2.618232         1.017081        -1.805377
 H         2.652209        -2.612033        -0.052651
 H         2.814116        -1.905690         1.713643
 H         4.627421         1.949504         1.223100
 H         4.192099         2.132821        -0.474622
 H         2.534280         0.512899         1.972088
