19
Iteration:  3364charge 0 multiplicity 1
 C         0.226000         1.017567        -0.205811
 C         1.528940         0.373040         0.009202
 C         2.470979        -0.099385        -1.119676
 C         3.316525        -0.390855         0.067754
 C         2.662039        -1.716598         0.564494
 O         1.319792        -1.150073         0.496659
 O         4.667445         0.120244         0.067376
 C         3.949358         1.449827         0.390687
 C         2.696176         0.777842         0.907302
 H        -0.053925         1.231687         0.762224
 H         0.080795         1.855377        -0.809217
 H        -0.361598         0.289701        -0.706806
 H         1.945193        -0.909630        -1.640291
 H         2.890667         0.673817        -1.730007
 H         2.875031        -2.452881        -0.223794
 H         2.753768        -2.224690         1.511333
 H         4.576874         1.870542         1.077918
 H         3.878763         2.124133        -0.505364
 H         2.706781         0.593028         1.970352
