19
Iteration:   596charge 0 multiplicity 1
 C         0.068224         0.817316        -0.174907
 C         1.512245         0.299667        -0.057720
 C         2.495097         0.050977        -1.243416
 C         3.368719        -0.395066         0.041072
 C         2.697166        -1.666921         0.528741
 O         1.358147        -1.111580         0.517766
 O         4.723606         0.075902         0.205852
 C         3.971356         1.480829         0.458435
 C         2.644742         0.799972         0.850454
 H        -0.498513         0.997034         0.766867
 H         0.113033         1.795720        -0.711971
 H        -0.451526         0.222289        -0.964373
 H         2.312050        -0.705004        -2.048317
 H         2.730630         0.976551        -1.723028
 H         2.551344        -2.542911        -0.160046
 H         3.070734        -1.962019         1.533926
 H         4.498995         1.838204         1.376128
 H         4.182912         2.105242        -0.316593
 H         2.384230         0.712739         1.938408
