19
Iteration:  1649
 C         0.076701         0.831209        -0.199899
 C         1.420525         0.328828        -0.117146
 C         2.523322        -0.004625        -1.196592
 C         3.330077        -0.348321         0.073128
 C         2.681012        -1.612845         0.589261
 O         1.319548        -1.075115         0.478709
 O         4.697932         0.034158         0.134014
 C         4.075808         1.448734         0.517804
 C         2.709429         0.818519         0.872319
 H        -0.542666         1.028510         0.669004
 H         0.058330         1.646947        -0.862392
 H        -0.578673         0.058650        -0.643255
 H         2.082944        -0.859169        -1.801813
 H         2.952448         0.657647        -1.822984
 H         2.765320        -2.495776        -0.091905
 H         2.934834        -2.013264         1.522955
 H         4.705602         1.782598         1.299572
 H         4.287341         2.043009        -0.408424
 H         2.541735         0.782029         1.967378
