19
Iteration:  4687charge 0 multiplicity 1
 C         0.200440         1.005757        -0.110497
 C         1.465873         0.225484        -0.003325
 C         2.477461        -0.053810        -1.146769
 C         3.342086        -0.391979         0.087839
 C         2.648294        -1.672109         0.494998
 O         1.275058        -1.155815         0.518609
 O         4.666931         0.147074         0.050365
 C         4.030907         1.389618         0.441833
 C         2.711465         0.781561         0.824966
 H        -0.244679         1.490542         0.817951
 H         0.489912         1.982709        -0.675700
 H        -0.512002         0.535780        -0.767494
 H         2.153660        -0.876236        -1.802839
 H         2.965816         0.652478        -1.861201
 H         2.807637        -2.552680        -0.065970
 H         2.937185        -1.901468         1.521001
 H         4.390458         2.099543         1.168401
 H         3.954128         2.070314        -0.364315
 H         2.752582         0.727685         1.954898
