19
Iteration:  1130
 C         0.183470         0.976646        -0.087320
 C         1.475929         0.229707        -0.120738
 C         2.532470        -0.068983        -1.225003
 C         3.387876        -0.467427         0.142979
 C         2.673469        -1.638677         0.550516
 O         1.352329        -1.136096         0.462583
 O         4.667175         0.195134         0.193845
 C         3.928112         1.479759         0.389917
 C         2.613664         0.720930         0.804631
 H        -0.173974         1.197934         0.899318
 H         0.215924         1.973671        -0.611173
 H        -0.611133         0.541320        -0.726052
 H         2.234263        -0.937030        -1.806958
 H         3.119870         0.694966        -1.717378
 H         2.694548        -2.584061        -0.161463
 H         2.940914        -2.033071         1.565863
 H         4.587089         2.022325         1.221454
 H         3.983790         2.205255        -0.475463
 H         2.444548         0.697872         1.945879
