19
Iteration:  3305
 C         0.138181         1.021582        -0.095926
 C         1.525893         0.245969        -0.087637
 C         2.508806        -0.117970        -1.265959
 C         3.379704        -0.442684        -0.032119
 C         2.715637        -1.712253         0.640383
 O         1.318548        -1.019741         0.544291
 O         4.620522         0.157802         0.114028
 C         4.011556         1.414059         0.475678
 C         2.668841         0.744802         0.777164
 H        -0.460207         0.997322         0.844654
 H         0.343429         2.033117        -0.384206
 H        -0.627284         0.493829        -0.625738
 H         2.099788        -1.010877        -1.771171
 H         2.822089         0.703081        -1.997257
 H         2.675987        -2.559772        -0.000695
 H         2.856612        -1.935784         1.661956
 H         4.615909         1.884826         1.375011
 H         4.015043         2.179846        -0.360320
 H         2.540594         0.674065         1.878922
