19
Iteration:  1834
 C         0.208005         0.931936        -0.207140
 C         1.519900         0.222193        -0.074692
 C         2.526136         0.029192        -1.212265
 C         3.331661        -0.395248         0.059389
 C         2.628129        -1.661363         0.563738
 O         1.322822        -1.127641         0.539558
 O         4.626955         0.150039         0.131113
 C         3.982465         1.425119         0.482956
 C         2.681747         0.751597         0.808015
 H        -0.144696         1.305209         0.794806
 H         0.359122         1.782372        -0.929518
 H        -0.573460         0.172009        -0.568925
 H         2.377077        -0.759837        -1.998912
 H         2.772622         1.025097        -1.629500
 H         2.449353        -2.653773         0.138586
 H         3.104898        -1.814820         1.557167
 H         4.445929         1.818418         1.327218
 H         4.112993         2.138263        -0.316549
 H         2.649146         0.496212         1.950413
