19
Iteration:  1353
 C         0.054386         0.873236        -0.273777
 C         1.485736         0.289451        -0.058716
 C         2.491643         0.029624        -1.170891
 C         3.284989        -0.416605         0.050002
 C         2.731929        -1.685063         0.548229
 O         1.277010        -1.062233         0.607154
 O         4.708613         0.163161         0.120210
 C         4.106887         1.350874         0.510535
 C         2.678191         0.754499         0.804399
 H        -0.476637         1.226290         0.600533
 H         0.006811         1.708027        -0.904602
 H        -0.609126         0.178094        -0.761006
 H         2.401835        -0.688105        -1.950876
 H         2.839998         1.026124        -1.627699
 H         2.985579        -2.491213        -0.165860
 H         3.027558        -2.092972         1.516619
 H         4.490982         1.838520         1.346836
 H         4.401325         2.082168        -0.327705
 H         2.443331         0.755605         1.820445
