19
Iteration:   980charge 0 multiplicity 1
 C         0.215671         1.013865        -0.107209
 C         1.515551         0.203024        -0.107989
 C         2.503812        -0.081247        -1.206491
 C         3.341214        -0.366476         0.075358
 C         2.637757        -1.721698         0.557380
 O         1.338707        -1.205407         0.451900
 O         4.666604         0.194051         0.148928
 C         3.977622         1.552607         0.493302
 C         2.632620         0.737298         0.811681
 H        -0.135040         1.373131         0.804047
 H         0.310395         1.865992        -0.818602
 H        -0.563663         0.326440        -0.438504
 H         2.274121        -0.987263        -1.760263
 H         2.845552         0.689655        -1.907549
 H         2.714368        -2.562208        -0.065035
 H         2.929481        -1.933209         1.557649
 H         4.480501         1.996390         1.408017
 H         3.969547         2.217581        -0.417464
 H         2.487241         0.653922         1.926821
