19
Iteration:  1895
 C         0.241565         0.951814        -0.206512
 C         1.504281         0.265714        -0.075002
 C         2.468887        -0.072683        -1.245534
 C         3.370683        -0.414622         0.099109
 C         2.665458        -1.717506         0.549931
 O         1.268116        -1.068862         0.573666
 O         4.712701         0.172862         0.152880
 C         3.996914         1.440848         0.480582
 C         2.636128         0.729211         0.772425
 H        -0.214039         0.797485         0.783025
 H         0.211141         2.017955        -0.375333
 H        -0.440858         0.584163        -0.915044
 H         2.183115        -0.814827        -2.026018
 H         2.766601         0.843311        -1.657887
 H         2.511334        -2.548461        -0.153419
 H         3.113376        -1.934520         1.538311
 H         4.405052         2.016201         1.445598
 H         3.865589         2.046721        -0.444626
 H         2.588962         0.643498         1.779528
