19
Iteration:   616charge 0 multiplicity 1
 C        -0.000447         0.800772        -0.197233
 C         1.451376         0.361458        -0.074972
 C         2.525232        -0.023909        -1.135496
 C         3.358869        -0.360975         0.137374
 C         2.718478        -1.614100         0.501944
 O         1.295982        -1.121130         0.406728
 O         4.683261         0.155632         0.163351
 C         4.160736         1.401759         0.495587
 C         2.682054         0.772801         0.830428
 H        -0.172349         1.047466         0.858237
 H        -0.271393         1.617653        -0.766222
 H        -0.593588         0.004498        -0.552998
 H         2.106977        -0.807187        -1.738483
 H         2.944522         0.716428        -1.804754
 H         2.918662        -2.450768        -0.238734
 H         2.820835        -1.896836         1.552098
 H         4.663858         2.006369         1.295338
 H         4.008981         2.040260        -0.324366
 H         2.441237         0.629443         2.001399
