19
Iteration:  1182
 C         0.095246         0.898764        -0.266921
 C         1.451105         0.287909        -0.057613
 C         2.482342        -0.003608        -1.167855
 C         3.329153        -0.473837         0.001836
 C         2.713731        -1.694831         0.594702
 O         1.328326        -1.034381         0.503209
 O         4.742628         0.139086         0.122505
 C         3.996070         1.465305         0.544250
 C         2.744659         0.728343         0.869209
 H        -0.575925         1.207086         0.583123
 H         0.010772         1.731648        -0.930470
 H        -0.643463         0.177855        -0.614948
 H         2.206178        -0.773742        -1.901298
 H         2.574487         0.973948        -1.822974
 H         2.792326        -2.548870        -0.015155
 H         2.995461        -1.705740         1.695586
 H         4.559965         1.823441         1.367087
 H         3.859118         2.049578        -0.407291
 H         2.633910         0.404018         1.921642
