19
Iteration:  4505
 C         0.201476         1.116006        -0.122814
 C         1.520821         0.248655        -0.039114
 C         2.493284        -0.093795        -1.133118
 C         3.388534        -0.400892         0.027466
 C         2.692092        -1.722932         0.618728
 O         1.298608        -1.140395         0.504025
 O         4.642441         0.167755         0.071304
 C         3.966404         1.438899         0.383474
 C         2.639774         0.692900         0.789020
 H        -0.068807         1.443860         0.862970
 H         0.196257         2.088097        -0.591409
 H        -0.543750         0.391902        -0.487203
 H         2.162847        -0.822072        -1.858814
 H         2.852585         0.880821        -1.561993
 H         2.770903        -2.643139         0.039097
 H         2.898836        -2.057661         1.622887
 H         4.502427         1.853590         1.253052
 H         4.117510         2.043929        -0.532637
 H         2.512654         0.544009         1.857276
