19
Iteration:  4127
 C         0.102960         0.920442        -0.267782
 C         1.437764         0.276506        -0.044494
 C         2.432308         0.006294        -1.135596
 C         3.350479        -0.395562         0.009966
 C         2.668683        -1.626637         0.541211
 O         1.272607        -1.028318         0.628585
 O         4.724415         0.040824         0.071383
 C         4.055410         1.422108         0.452169
 C         2.805525         0.725185         0.881546
 H        -0.451739         1.102540         0.686026
 H         0.120814         1.872316        -0.805092
 H        -0.431732         0.097263        -0.805316
 H         2.153068        -0.820017        -1.900173
 H         2.740415         0.870014        -1.754864
 H         2.805361        -2.571671        -0.121806
 H         2.858056        -1.787968         1.672776
 H         4.753841         1.809198         1.160163
 H         3.938992         2.116597        -0.405680
 H         2.612844         0.681075         1.930918
