19
Iteration:  4690
 C         0.209701         0.998233        -0.119672
 C         1.469487         0.235975        -0.003781
 C         2.463080        -0.059409        -1.160275
 C         3.339204        -0.370295         0.071856
 C         2.632289        -1.648920         0.502560
 O         1.292483        -1.154327         0.531414
 O         4.683079         0.127522         0.055923
 C         4.008416         1.388996         0.423874
 C         2.717738         0.778122         0.845074
 H        -0.161274         1.409838         0.755669
 H         0.446922         1.942639        -0.561921
 H        -0.520085         0.481236        -0.769130
 H         2.142924        -0.806303        -1.855732
 H         3.015205         0.734657        -1.793837
 H         2.829466        -2.576033        -0.098209
 H         2.867465        -1.924073         1.555926
 H         4.342598         2.003652         1.237963
 H         3.990023         2.083740        -0.416232
 H         2.644790         0.711104         1.929198
