19
Iteration:  1138
 C         0.177767         0.974774        -0.125429
 C         1.508612         0.241198        -0.109457
 C         2.495533        -0.125597        -1.184788
 C         3.393765        -0.363119         0.105831
 C         2.640713        -1.722242         0.550135
 O         1.393904        -1.137908         0.466711
 O         4.623382         0.147047         0.191827
 C         3.925917         1.500043         0.440493
 C         2.650533         0.807489         0.777982
 H        -0.084333         1.171980         0.919555
 H         0.480016         1.875374        -0.582439
 H        -0.717396         0.476791        -0.435063
 H         2.330645        -0.764412        -2.049098
 H         3.113306         0.694049        -1.721694
 H         2.768141        -2.451131        -0.234722
 H         2.889726        -2.081851         1.596704
 H         4.279141         1.975600         1.333067
 H         3.936178         2.011047        -0.570425
 H         2.501258         0.703505         1.847239
