19
Iteration:  4517charge 0 multiplicity 1
 C         0.233742         1.046573        -0.116572
 C         1.463802         0.306007        -0.019229
 C         2.437551        -0.128379        -1.185327
 C         3.365751        -0.507079         0.032004
 C         2.734793        -1.670882         0.555551
 O         1.290865        -1.137511         0.500206
 O         4.711234         0.158779         0.062588
 C         3.951794         1.391639         0.444010
 C         2.639193         0.809779         0.877592
 H        -0.022426         1.264002         0.905414
 H         0.639673         1.849396        -0.704440
 H        -0.728030         0.789974        -0.647184
 H         2.170781        -0.994583        -1.741963
 H         2.817336         0.641573        -1.955312
 H         2.871545        -2.463379        -0.153941
 H         2.939991        -1.826223         1.577653
 H         4.470845         1.997966         1.206744
 H         3.755839         2.072097        -0.389775
 H         2.419596         0.860797         1.937724
