19
Iteration:   397
 C         0.210593         1.012342        -0.148069
 C         1.483078         0.205389        -0.093762
 C         2.440593        -0.158215        -1.244272
 C         3.416760        -0.405415         0.100112
 C         2.712725        -1.655827         0.517210
 O         1.407512        -1.173881         0.492063
 O         4.641795         0.198332         0.148094
 C         3.948950         1.507450         0.496776
 C         2.583398         0.755520         0.841271
 H        -0.465036         1.030825         0.809230
 H         0.623980         2.034740        -0.252211
 H        -0.486381         0.823989        -0.976425
 H         2.105816        -1.033859        -1.689985
 H         2.788441         0.681082        -1.893605
 H         2.926661        -2.444293        -0.266512
 H         2.807973        -2.158476         1.486159
 H         4.351093         2.110597         1.432885
 H         3.938911         2.157400        -0.375084
 H         2.358131         0.777193         1.947666
