19
Iteration:  4416
 C         0.140010         0.892735        -0.195758
 C         1.481217         0.258316         0.002930
 C         2.513421        -0.004004        -1.205905
 C         3.353303        -0.381748         0.016470
 C         2.654392        -1.595162         0.614379
 O         1.269367        -1.050682         0.624936
 O         4.661405         0.061842         0.014461
 C         4.058219         1.448493         0.434235
 C         2.761232         0.703490         0.811820
 H        -0.529761         0.886425         0.644093
 H         0.336259         1.943470        -0.422604
 H        -0.379478         0.519778        -1.058401
 H         1.959089        -0.693857        -1.876837
 H         2.918383         0.847960        -1.631320
 H         2.596235        -2.450280         0.028538
 H         2.884032        -2.002640         1.541280
 H         4.314189         1.828063         1.381390
 H         4.040415         2.046329        -0.405133
 H         2.717326         0.539528         1.927039
