19
Iteration:   719charge 0 multiplicity 1
 C         0.109860         0.884497        -0.196681
 C         1.491748         0.287355        -0.122916
 C         2.548709         0.013107        -1.112942
 C         3.415156        -0.469587         0.014333
 C         2.711542        -1.697251         0.597900
 O         1.300190        -1.094712         0.466909
 O         4.666526         0.193959         0.112529
 C         3.963140         1.504750         0.465834
 C         2.652103         0.684017         0.913851
 H        -0.626699         0.683436         0.645216
 H         0.499824         2.011622        -0.163559
 H        -0.519631         0.611787        -1.145822
 H         2.341544        -0.728493        -1.927351
 H         2.924877         0.878396        -1.775073
 H         2.624015        -2.626806        -0.026691
 H         2.935109        -2.032678         1.694025
 H         4.484127         1.939092         1.226342
 H         3.819746         2.066506        -0.388290
 H         2.631819         0.636790         1.973339
