19
Iteration:  3911charge 0 multiplicity 1
 C         0.180829         1.096792        -0.145956
 C         1.479341         0.260094        -0.024721
 C         2.502632        -0.166626        -1.214186
 C         3.339770        -0.432383         0.054469
 C         2.642431        -1.715561         0.556711
 O         1.233887        -1.070097         0.540284
 O         4.729785         0.230642         0.101215
 C         4.046650         1.472507         0.392029
 C         2.670517         0.631757         0.889347
 H        -0.436950         1.065540         0.763053
 H         0.319504         2.161474        -0.465644
 H        -0.424826         0.592511        -0.948158
 H         2.292809        -1.026528        -1.966274
 H         2.762997         0.671373        -1.906009
 H         2.615114        -2.825676         0.145281
 H         2.849396        -1.869219         1.653606
 H         4.699582         1.987664         1.101000
 H         4.007908         2.044307        -0.617996
 H         2.836021         0.383810         1.984046
