19
Iteration:  3696charge 0 multiplicity 1
 C         0.022497         0.822884        -0.201276
 C         1.445514         0.394219        -0.046126
 C         2.421791        -0.020646        -1.209121
 C         3.379236        -0.440768        -0.031076
 C         2.666748        -1.572034         0.509848
 O         1.397092        -0.973935         0.640936
 O         4.636974         0.035109         0.196889
 C         4.145094         1.405670         0.474549
 C         2.748416         0.714602         0.771067
 H        -0.422553         0.907250         0.812580
 H         0.099538         1.680918        -0.844368
 H        -0.597203         0.190093        -0.841208
 H         2.025187        -0.671726        -1.932517
 H         2.820982         0.822835        -1.741328
 H         2.572481        -2.348528        -0.215478
 H         2.858692        -2.017118         1.484646
 H         4.612560         1.911522         1.304822
 H         4.115172         1.947377        -0.373740
 H         2.711056         0.465047         1.830962
