19
Iteration:  3167
 C         0.190746         1.078146        -0.151304
 C         1.484979         0.275905        -0.066094
 C         2.403377        -0.036411        -1.211263
 C         3.396593        -0.447894         0.009113
 C         2.658219        -1.721690         0.698047
 O         1.331626        -1.129361         0.486282
 O         4.690473         0.156053         0.159948
 C         3.967003         1.457622         0.337662
 C         2.726503         0.656992         0.837279
 H        -0.190605         1.282474         0.868641
 H         0.455805         2.080606        -0.575750
 H        -0.661479         0.426099        -0.602689
 H         2.096092        -0.762010        -1.937666
 H         2.759114         0.939440        -1.665585
 H         2.677888        -2.687519         0.085340
 H         2.860039        -1.901886         1.815599
 H         4.336127         2.102892         1.063438
 H         3.914024         2.012067        -0.648669
 H         2.761201         0.434473         1.911634
