19
Iteration:  1113charge 0 multiplicity 1
 C         0.155292         0.963529        -0.176599
 C         1.507771         0.306384        -0.057395
 C         2.509931        -0.075235        -1.184803
 C         3.418799        -0.362032         0.015354
 C         2.711796        -1.753095         0.625037
 O         1.201082        -1.115602         0.452010
 O         4.733731         0.224910         0.165635
 C         3.971682         1.457572         0.432482
 C         2.688871         0.679806         0.855122
 H        -0.332986         0.824771         0.825993
 H         0.267863         2.034797        -0.415866
 H        -0.558218         0.403831        -0.821660
 H         2.317804        -0.866452        -1.961981
 H         2.726188         0.772278        -1.838197
 H         2.844173        -2.633444         0.093829
 H         2.883223        -1.823785         1.662199
 H         4.292321         2.080431         1.184090
 H         3.793297         1.873531        -0.518869
 H         2.530898         0.494344         1.894066
