19
Iteration:  4031
 C         0.133841         0.953416        -0.226276
 C         1.480804         0.284758        -0.004768
 C         2.427091        -0.033601        -1.181848
 C         3.362981        -0.387578         0.089928
 C         2.675498        -1.638672         0.553277
 O         1.263613        -1.103532         0.581029
 O         4.693362         0.094330         0.089980
 C         4.104498         1.369973         0.402722
 C         2.707391         0.790575         0.853742
 H        -0.447088         1.289109         0.678730
 H         0.509688         1.922668        -0.587538
 H        -0.524464         0.400143        -0.915545
 H         2.077871        -0.906115        -1.782618
 H         2.679193         0.697156        -1.963702
 H         2.748260        -2.517122        -0.098392
 H         3.026264        -1.884081         1.529900
 H         4.561722         1.879146         1.199937
 H         4.061588         1.992748        -0.480669
 H         2.578150         0.714723         1.943602
