19
Iteration:  1826
 C         0.178972         0.884492        -0.195482
 C         1.469304         0.230074        -0.115025
 C         2.475962        -0.035255        -1.185452
 C         3.383050        -0.406651        -0.015032
 C         2.650691        -1.652251         0.553747
 O         1.312936        -1.048516         0.547836
 O         4.665953         0.157130         0.170783
 C         4.052711         1.430371         0.489514
 C         2.658248         0.771707         0.859371
 H        -0.154483         1.311966         0.777826
 H         0.140249         1.803946        -0.952663
 H        -0.506711         0.133208        -0.699770
 H         2.171392        -0.750050        -1.924917
 H         2.866253         1.001799        -1.629345
 H         2.669425        -2.643137        -0.133476
 H         2.934907        -1.939494         1.597248
 H         4.590058         1.716498         1.429003
 H         3.997062         2.082865        -0.427421
 H         2.491207         0.387475         1.865147
