19
Iteration:  3260charge 0 multiplicity 1
 C         0.113296         0.770821        -0.261109
 C         1.476667         0.310871         0.032971
 C         2.427025         0.094699        -1.203531
 C         3.269430        -0.402289         0.046170
 C         2.620387        -1.705293         0.562072
 O         1.330955        -1.023775         0.580977
 O         4.704325         0.038917         0.115481
 C         4.114317         1.407558         0.342451
 C         2.718787         0.854942         0.891676
 H        -0.589345         0.671506         0.589525
 H         0.270092         1.824929        -0.440659
 H        -0.338955         0.069498        -0.890575
 H         2.329094        -0.626769        -2.060717
 H         2.886276         1.058767        -1.380413
 H         2.456090        -2.615589         0.042281
 H         3.009636        -1.785433         1.545648
 H         4.710124         2.029150         1.181118
 H         4.334688         2.021124        -0.542308
 H         2.774076         0.644882         1.982417
