19
Iteration:  4995
 C         0.076498         0.960411        -0.140468
 C         1.459031         0.298297        -0.012310
 C         2.500545        -0.033894        -1.184257
 C         3.336668        -0.379405         0.073732
 C         2.665142        -1.714445         0.531047
 O         1.263513        -1.138254         0.543369
 O         4.674582         0.124784         0.106256
 C         4.166094         1.433034         0.390786
 C         2.699339         0.775904         0.816022
 H        -0.058051         1.384557         0.831802
 H         0.138229         1.906540        -0.643916
 H        -0.709919         0.288044        -0.490520
 H         1.935306        -0.896540        -1.691513
 H         2.955753         0.707693        -1.882315
 H         2.739637        -2.388316        -0.309218
 H         2.889585        -1.944737         1.564350
 H         4.677289         1.804051         1.296535
 H         4.326458         2.131286        -0.548410
 H         2.542941         0.651266         1.882047
