19
Iteration:  4906
 C         0.121410         0.964674        -0.190878
 C         1.546877         0.318507        -0.018600
 C         2.474472        -0.031891        -1.203920
 C         3.316952        -0.435974         0.063539
 C         2.715917        -1.659670         0.508225
 O         1.307243        -1.084698         0.642299
 O         4.594273         0.039722         0.018833
 C         4.111851         1.393362         0.432129
 C         2.717980         0.850796         0.875593
 H        -0.580331         0.780831         0.646815
 H         0.064450         2.055222        -0.329909
 H        -0.409624         0.453052        -1.042939
 H         2.202609        -0.893936        -1.770249
 H         2.903820         0.946167        -1.530084
 H         2.764541        -2.404361        -0.300685
 H         2.892034        -2.118805         1.490880
 H         4.663615         1.782786         1.315794
 H         3.948474         2.080086        -0.457203
 H         2.351168         0.749096         1.904642
