19
Iteration:  2620
 C         0.135026         1.010567        -0.136800
 C         1.547929         0.309034        -0.109875
 C         2.517278        -0.074772        -1.223311
 C         3.376011        -0.365139         0.122897
 C         2.689371        -1.690156         0.655438
 O         1.294464        -1.153969         0.533077
 O         4.643885         0.058964         0.094744
 C         4.025447         1.461889         0.349472
 C         2.602157         0.790704         0.796487
 H        -0.244602         0.725705         0.868366
 H         0.240000         2.147924        -0.150768
 H        -0.605605         0.767282        -0.870117
 H         2.384149        -0.944820        -1.814213
 H         2.865522         0.815333        -1.848557
 H         2.778097        -2.651991         0.073136
 H         3.032459        -1.773986         1.765028
 H         4.612647         1.833586         1.284852
 H         4.010008         2.000004        -0.608450
 H         2.480886         0.800917         1.896880
