19
Iteration:  4985
 C         0.206636         1.032581        -0.068632
 C         1.497790         0.288056        -0.075945
 C         2.382403        -0.050627        -1.186507
 C         3.337147        -0.438958         0.125732
 C         2.717250        -1.718292         0.554963
 O         1.306003        -1.131248         0.505729
 O         4.664864         0.088352         0.067238
 C         4.102716         1.462981         0.415421
 C         2.622222         0.826828         0.814580
 H        -0.188611         1.230789         0.922210
 H         0.187067         1.791222        -0.844192
 H        -0.658740         0.359562        -0.458483
 H         2.180363        -0.825051        -2.020976
 H         2.994140         0.690391        -1.721056
 H         2.719511        -2.595675        -0.115985
 H         2.830988        -2.199990         1.526274
 H         4.365545         2.031537         1.303214
 H         4.448011         2.107820        -0.501026
 H         2.481509         0.773583         1.883787
