19
Iteration:  4692
 C         0.216608         0.992616        -0.132788
 C         1.475409         0.248528        -0.005004
 C         2.455641        -0.056179        -1.173412
 C         3.337457        -0.364611         0.058743
 C         2.627499        -1.637512         0.516143
 O         1.303865        -1.149994         0.538045
 O         4.694436         0.114779         0.062017
 C         3.993552         1.395964         0.407642
 C         2.714848         0.769068         0.860004
 H        -0.152319         1.336014         0.809628
 H         0.436374         1.935209        -0.532115
 H        -0.535692         0.448587        -0.753119
 H         2.130929        -0.805183        -1.904308
 H         2.985774         0.771525        -1.695150
 H         2.822909        -2.570851        -0.135369
 H         2.828658        -1.942458         1.572522
 H         4.376423         1.931317         1.331753
 H         4.012330         2.101777        -0.491829
 H         2.556917         0.688075         1.917005
