19
Iteration:  4804charge 0 multiplicity 1
 C         0.214747         1.084466        -0.132309
 C         1.520383         0.195488         0.024599
 C         2.391536        -0.102772        -1.201824
 C         3.399318        -0.447299         0.002306
 C         2.671544        -1.682170         0.575442
 O         1.295765        -1.087015         0.513508
 O         4.664170         0.208550         0.115475
 C         3.978436         1.432082         0.427519
 C         2.736291         0.645565         0.834688
 H        -0.204400         1.501930         0.817280
 H         0.409021         2.002178        -0.729270
 H        -0.455313         0.547483        -0.706500
 H         1.949831        -0.751369        -2.008611
 H         2.655615         0.804863        -1.749250
 H         2.363890        -2.567645        -0.059464
 H         2.933858        -2.074129         1.590564
 H         4.669265         2.110617         1.054900
 H         3.980959         2.116929        -0.470283
 H         2.681347         0.366488         1.931390
