19
Iteration:  4450charge 0 multiplicity 1
 C         0.002463         0.851740        -0.194115
 C         1.518773         0.360781        -0.032484
 C         2.405873        -0.031033        -1.228979
 C         3.334443        -0.356139         0.037527
 C         2.680986        -1.683711         0.557069
 O         1.341239        -1.040847         0.606031
 O         4.656264         0.025162         0.086608
 C         4.146269         1.411436         0.476423
 C         2.761078         0.809851         0.829746
 H        -0.438324         1.033746         0.774813
 H         0.135710         1.821620        -0.665044
 H        -0.709631         0.265322        -0.807103
 H         1.993053        -0.809400        -1.911098
 H         2.949761         0.663690        -1.840063
 H         2.758921        -2.368144        -0.236311
 H         2.885803        -1.951048         1.543711
 H         4.721595         1.893610         1.253621
 H         4.293789         2.084632        -0.336955
 H         2.540271         0.770622         1.900405
