19
Iteration:  1429
 C         0.263184         1.035961        -0.177986
 C         1.476024         0.185635        -0.066107
 C         2.475144        -0.136895        -1.275630
 C         3.409284        -0.387616         0.113685
 C         2.704654        -1.677537         0.558294
 O         1.238409        -1.166157         0.544142
 O         4.673035         0.218577         0.173708
 C         4.006715         1.439694         0.456544
 C         2.587111         0.755645         0.767347
 H        -0.300212         1.009675         0.749717
 H         0.416139         2.078332        -0.225271
 H        -0.409457         0.777122        -0.973858
 H         2.330823        -0.986955        -1.894077
 H         2.759337         0.899412        -1.646940
 H         2.699647        -2.508191        -0.220971
 H         3.041997        -1.915490         1.585095
 H         4.608242         1.848249         1.263210
 H         4.002205         2.243764        -0.392804
 H         2.487568         0.641714         1.854372
