19
Iteration:  1418
 C         0.160880         1.035617        -0.118573
 C         1.474872         0.223939        -0.186055
 C         2.534176        -0.083016        -1.215339
 C         3.342109        -0.417315         0.066339
 C         2.696664        -1.743784         0.611056
 O         1.295215        -1.143700         0.544188
 O         4.704383         0.151193         0.161169
 C         3.960374         1.511288         0.464804
 C         2.676380         0.756007         0.792547
 H        -0.424495         0.974886         0.779980
 H         0.646664         1.929396        -0.347444
 H        -0.421837         0.835419        -0.993364
 H         2.291370        -0.650916        -2.068178
 H         2.765216         0.827745        -1.888452
 H         2.742682        -2.744007         0.039862
 H         2.913506        -2.108209         1.641917
 H         4.236756         2.088426         1.337712
 H         3.953825         2.129666        -0.537083
 H         2.446789         0.709880         1.871487
