19
Iteration:  1503
 C         0.106250         0.837762        -0.192170
 C         1.444664         0.267722        -0.114849
 C         2.482199        -0.042581        -1.253251
 C         3.333918        -0.346923         0.038153
 C         2.705991        -1.615565         0.551077
 O         1.292235        -1.080290         0.532490
 O         4.700730         0.090766         0.159659
 C         4.148862         1.413369         0.523268
 C         2.647256         0.799321         0.861943
 H        -0.469772         1.203989         0.692866
 H        -0.027255         1.729034        -0.936147
 H        -0.579847         0.066102        -0.640336
 H         2.235290        -0.833813        -1.894346
 H         2.843296         0.946946        -1.672784
 H         2.746301        -2.458351        -0.186329
 H         2.927203        -2.000825         1.535642
 H         4.514979         1.846862         1.494252
 H         4.204878         2.077890        -0.361114
 H         2.578464         1.005257         2.021629
