19
Iteration:   934
 C         0.142012         0.871468        -0.303825
 C         1.512428         0.317784        -0.021084
 C         2.488792         0.035372        -1.242023
 C         3.346404        -0.382170         0.056025
 C         2.695315        -1.680001         0.578296
 O         1.352129        -1.151290         0.595647
 O         4.630304         0.161759         0.094681
 C         4.003027         1.426588         0.489718
 C         2.655927         0.743179         0.879063
 H        -0.576191         0.785751         0.545292
 H         0.379908         1.971388        -0.390818
 H        -0.443689         0.337482        -1.092349
 H         2.252845        -0.747126        -1.954892
 H         2.832323         0.924180        -1.843566
 H         2.816819        -2.395655        -0.197636
 H         2.935372        -1.982194         1.545217
 H         4.540999         1.734917         1.492099
 H         4.029181         2.193571        -0.329660
 H         2.673858         0.533073         2.046389
