19
Iteration:  1887
 C         0.248290         0.980133        -0.135737
 C         1.533532         0.256859        -0.091531
 C         2.442712        -0.119554        -1.244289
 C         3.397830        -0.421815         0.053443
 C         2.684767        -1.675537         0.548205
 O         1.241447        -1.112715         0.527960
 O         4.694125         0.167399         0.169751
 C         3.959320         1.505844         0.475765
 C         2.649919         0.747392         0.830921
 H        -0.410778         1.008782         0.710352
 H         0.460677         1.924993        -0.542678
 H        -0.327273         0.507130        -0.952292
 H         1.956733        -0.878436        -1.899922
 H         2.945967         0.593088        -1.870031
 H         2.616817        -2.466426        -0.163486
 H         2.916210        -1.937657         1.599747
 H         4.610684         1.958636         1.217518
 H         4.004869         2.241823        -0.326260
 H         2.547860         0.403448         1.922738
