19
Iteration:  1927charge 0 multiplicity 1
 C         0.039671         0.867757        -0.263817
 C         1.460093         0.326063         0.006993
 C         2.526361        -0.013073        -1.225912
 C         3.313207        -0.375096         0.092455
 C         2.702395        -1.642204         0.557362
 O         1.288132        -1.052554         0.536990
 O         4.701951         0.057870         0.123472
 C         4.113621         1.419583         0.478134
 C         2.687556         0.769723         0.832597
 H        -0.542491         0.630368         0.675726
 H         0.069931         1.987045        -0.342641
 H        -0.406938         0.292585        -1.060759
 H         2.237627        -0.767746        -2.012109
 H         2.904912         0.855935        -1.698814
 H         2.694931        -2.580756        -0.053351
 H         3.120248        -1.959953         1.532932
 H         4.589339         2.035936         1.365028
 H         4.071614         2.035589        -0.450982
 H         2.592738         0.663499         1.842953
