19
Iteration:  1755
 C         0.108537         0.954123        -0.259519
 C         1.471002         0.284469         0.002463
 C         2.546692        -0.026893        -1.183211
 C         3.354763        -0.404163         0.034056
 C         2.653286        -1.652343         0.649045
 O         1.319095        -1.132058         0.491080
 O         4.731866         0.129063         0.103895
 C         3.983069         1.468205         0.454387
 C         2.654249         0.690074         0.831945
 H        -0.376332         0.861452         0.752677
 H         0.272958         2.008788        -0.264597
 H        -0.546860         0.646348        -1.143727
 H         2.277919        -0.743691        -2.031223
 H         2.939189         0.887803        -1.593497
 H         2.695469        -2.557246        -0.006086
 H         2.765286        -1.845268         1.769143
 H         4.616468         1.991910         1.204328
 H         3.965911         2.038039        -0.440664
 H         2.605261         0.504398         1.979165
