19
Iteration:  1595
 C         0.231322         1.040412        -0.256790
 C         1.497109         0.284029        -0.074124
 C         2.453527        -0.139198        -1.181970
 C         3.371378        -0.394806         0.066458
 C         2.702052        -1.659167         0.593590
 O         1.340651        -1.108061         0.485188
 O         4.650829         0.165303         0.131518
 C         3.930998         1.451071         0.478352
 C         2.673140         0.704046         0.909731
 H        -0.358260         0.839082         0.644936
 H         0.273191         2.068926        -0.389668
 H        -0.285985         0.539969        -1.103995
 H         2.026646        -1.000151        -1.789399
 H         2.615435         0.699387        -1.733046
 H         2.646054        -2.546623        -0.127491
 H         3.139715        -1.958435         1.591301
 H         4.445712         1.971664         1.277363
 H         4.044455         2.018729        -0.533356
 H         2.564700         0.526540         1.971479
