19
Iteration:  4549
 C         0.142019         0.977338        -0.177195
 C         1.497742         0.292735        -0.047249
 C         2.423737        -0.059625        -1.137905
 C         3.352715        -0.504551        -0.045872
 C         2.701717        -1.672338         0.568503
 O         1.254446        -1.076422         0.617733
 O         4.693180         0.180263         0.111234
 C         4.036014         1.400102         0.436925
 C         2.738999         0.708567         0.756761
 H        -0.333872         1.102880         0.774787
 H         0.365098         2.041828        -0.261538
 H        -0.390492         0.500640        -1.053603
 H         2.130363        -0.743921        -1.918369
 H         2.912336         0.875841        -1.641402
 H         2.680992        -2.607873        -0.093182
 H         3.038683        -1.989020         1.572555
 H         4.437632         2.009672         1.289113
 H         3.897144         2.266135        -0.330077
 H         2.671703         0.681041         1.848015
