19
Iteration:    61charge 0 multiplicity 1
 C         0.111890         0.860314        -0.190602
 C         1.515554         0.239999        -0.007802
 C         2.351523        -0.010276        -1.233863
 C         3.408748        -0.446581         0.087859
 C         2.753082        -1.701931         0.582262
 O         1.278272        -0.992223         0.421055
 O         4.674432         0.174815         0.109732
 C         3.988413         1.492097         0.493319
 C         2.806958         0.671400         0.885405
 H        -0.607125         0.709172         0.712683
 H         0.061889         1.925784        -0.376726
 H        -0.232764         0.277440        -1.059359
 H         1.881453        -0.857935        -1.876749
 H         2.807006         0.879951        -1.792188
 H         2.779047        -2.700857         0.013857
 H         2.916226        -1.677459         1.695631
 H         4.594754         1.935590         1.260240
 H         3.955168         2.167149        -0.397128
 H         2.658234         0.671683         2.022537
