19
Iteration:  4776
 C         0.140541         1.031078        -0.150067
 C         1.536216         0.335792        -0.033906
 C         2.483161        -0.005474        -1.146959
 C         3.370241        -0.409401         0.034217
 C         2.661583        -1.657415         0.571632
 O         1.327162        -1.122678         0.591214
 O         4.649593         0.080092         0.013743
 C         4.027920         1.409168         0.456002
 C         2.676852         0.692725         0.817662
 H        -0.448597         0.829041         0.775031
 H         0.125195         2.063353        -0.580630
 H        -0.380185         0.366954        -0.942231
 H         2.166607        -0.720168        -1.877504
 H         2.779892         0.857589        -1.824175
 H         2.576366        -2.569991         0.024927
 H         2.967976        -1.908122         1.595375
 H         4.633318         1.902556         1.224956
 H         4.050262         2.047263        -0.428894
 H         2.433808         0.563437         1.868865
