19
Iteration:  2605charge 0 multiplicity 1
 C         0.161008         1.067838        -0.077615
 C         1.447108         0.338429        -0.102653
 C         2.535353        -0.127145        -1.104207
 C         3.347475        -0.490088         0.131193
 C         2.676430        -1.660595         0.659120
 O         1.286341        -1.171353         0.434191
 O         4.754605         0.119316         0.121218
 C         3.925982         1.468472         0.271820
 C         2.688851         0.775830         0.803961
 H        -0.359297         0.873722         0.869876
 H         0.401488         2.206959        -0.077727
 H        -0.352672         0.588772        -0.963429
 H         2.096907        -0.923329        -1.788082
 H         3.109919         0.639699        -1.626074
 H         2.890730        -2.482252        -0.087913
 H         2.743215        -2.017161         1.718194
 H         4.353992         2.096754         0.938940
 H         3.924894         2.053043        -0.643972
 H         2.438648         0.828501         1.888714
