19
Iteration:  3794
 C         0.188399         1.117534        -0.102246
 C         1.474198         0.197845        -0.041449
 C         2.505630        -0.139387        -1.227283
 C         3.434469        -0.495154         0.010297
 C         2.712759        -1.759566         0.593799
 O         1.223100        -1.070971         0.549760
 O         4.684122         0.199268         0.140360
 C         3.963456         1.458529         0.425497
 C         2.666070         0.748513         0.773057
 H        -0.230988         1.300046         0.978932
 H         0.593596         2.083071        -0.562140
 H        -0.661992         0.708690        -0.775000
 H         2.076101        -0.849358        -1.932658
 H         2.907464         0.679820        -1.800387
 H         2.671455        -2.489391        -0.142888
 H         3.035519        -2.141007         1.573009
 H         4.707014         1.831076         1.186443
 H         3.932164         2.110491        -0.494719
 H         2.400515         0.681380         1.846395
