19
Iteration:  3000charge 0 multiplicity 1
 C         0.119792         1.010016        -0.167363
 C         1.485853         0.327191        -0.017194
 C         2.422368        -0.104359        -1.197668
 C         3.346919        -0.400595         0.074952
 C         2.746525        -1.659239         0.616881
 O         1.289093        -1.126199         0.487579
 O         4.666568         0.101142         0.145232
 C         4.076376         1.445349         0.395027
 C         2.701490         0.776861         0.762358
 H        -0.393324         1.203322         0.843424
 H         0.146754         2.037288        -0.517829
 H        -0.554819         0.248473        -0.579630
 H         2.035014        -0.843881        -1.987340
 H         2.989576         0.651682        -1.692061
 H         2.769724        -2.592945         0.075497
 H         2.844919        -1.978720         1.642890
 H         4.606200         1.793736         1.206315
 H         4.116389         2.044086        -0.485373
 H         2.645576         0.605506         1.859916
