19
Iteration:   562charge 0 multiplicity 1
 C         0.129743         1.011314        -0.244373
 C         1.467491         0.240430         0.000286
 C         2.529465        -0.091828        -1.272993
 C         3.410557        -0.413122         0.023434
 C         2.721722        -1.697607         0.527831
 O         1.292151        -1.167973         0.549913
 O         4.708239         0.211983         0.121553
 C         3.959041         1.516267         0.522956
 C         2.661852         0.700985         0.872823
 H        -0.615298         0.914400         0.607781
 H         0.442948         2.026884        -0.305794
 H        -0.401465         0.671594        -1.130354
 H         2.238745        -0.924152        -1.854753
 H         2.660724         0.822094        -1.825735
 H         2.621609        -2.670760        -0.063031
 H         3.164010        -1.941100         1.512055
 H         4.399896         1.961315         1.447870
 H         3.810192         2.215164        -0.199341
 H         2.406447         0.531362         2.004775
