19
Iteration:  2277charge 0 multiplicity 1
 C         0.251182         1.025128        -0.196145
 C         1.506657         0.196664        -0.085554
 C         2.489191        -0.043367        -1.255664
 C         3.350682        -0.464186         0.052515
 C         2.688230        -1.733466         0.639216
 O         1.326613        -1.075385         0.614034
 O         4.702704         0.151969         0.112393
 C         3.920959         1.439045         0.452674
 C         2.606283         0.744123         0.753402
 H        -0.277685         0.922947         0.738587
 H         0.490853         2.031345        -0.297615
 H        -0.441291         0.689454        -1.008795
 H         2.142421        -0.701623        -2.038434
 H         2.736236         1.055210        -1.525772
 H         2.574746        -2.639300         0.049280
 H         3.013824        -1.963514         1.660395
 H         4.553772         1.842779         1.180005
 H         3.809499         2.261987        -0.430242
 H         2.460902         0.811862         1.822040
