19
Iteration:   178charge 0 multiplicity 1
 C         0.131114         0.847261        -0.220955
 C         1.472392         0.248874        -0.046500
 C         2.470280         0.029606        -1.118991
 C         3.314112        -0.345857         0.035236
 C         2.716993        -1.653735         0.548244
 O         1.308571        -1.173376         0.564670
 O         4.667154         0.114603         0.014007
 C         4.138634         1.408592         0.543539
 C         2.623148         0.905709         0.824498
 H        -0.480513         0.549784         0.549569
 H        -0.100410         1.912440        -0.498427
 H        -0.167421         0.132837        -1.000097
 H         2.162106        -0.631655        -1.952574
 H         2.700576         0.980884        -1.612658
 H         2.732825        -2.364960        -0.224366
 H         2.989721        -2.022445         1.499583
 H         4.702326         1.583412         1.574488
 H         4.243557         2.267172        -0.101693
 H         2.493826         0.757349         1.822556
