19
Iteration:  3052
 C         0.209648         1.053795        -0.134760
 C         1.501417         0.308588        -0.082401
 C         2.499124        -0.078354        -1.179648
 C         3.378199        -0.419761         0.120040
 C         2.662044        -1.722479         0.555068
 O         1.316491        -1.156285         0.604589
 O         4.665054         0.144314         0.065023
 C         3.934484         1.433134         0.378421
 C         2.664696         0.731504         0.789123
 H        -0.252447         1.471728         0.752857
 H         0.535731         1.993425        -0.697792
 H        -0.586752         0.624874        -0.669496
 H         2.246013        -1.009433        -1.752551
 H         2.906657         0.748721        -1.731119
 H         2.647376        -2.614080        -0.185157
 H         2.894457        -2.021147         1.611422
 H         4.472852         1.868376         1.310260
 H         4.106915         2.114915        -0.437179
 H         2.416697         0.841547         1.832411
