19
Iteration:  4859charge 0 multiplicity 1
 C         0.134589         0.878065        -0.111025
 C         1.487689         0.312764        -0.070344
 C         2.432299        -0.002202        -1.240838
 C         3.306229        -0.405323         0.009422
 C         2.635019        -1.651288         0.590497
 O         1.272582        -1.052324         0.520171
 O         4.716863         0.086905         0.107818
 C         4.077156         1.441880         0.413443
 C         2.772524         0.724252         0.826954
 H        -0.236780         1.124001         0.903890
 H         0.214550         1.897766        -0.480637
 H        -0.605607         0.381103        -0.596593
 H         1.995767        -0.806696        -1.769009
 H         2.924742         0.865849        -1.612266
 H         2.449218        -2.616995         0.080382
 H         3.019680        -1.746114         1.638885
 H         4.622580         1.686894         1.359209
 H         4.166644         2.155550        -0.413622
 H         2.760245         0.437288         1.914615
