19
Iteration:  4606
 C         0.023087         0.904464        -0.138964
 C         1.505712         0.369397        -0.012561
 C         2.399861        -0.001733        -1.197209
 C         3.404762        -0.390481         0.013309
 C         2.631823        -1.691450         0.592657
 O         1.322314        -1.098112         0.526458
 O         4.745177         0.061901         0.100887
 C         4.216120         1.424425         0.424876
 C         2.645913         0.813078         0.821456
 H        -0.621225         0.724870         0.728955
 H         0.032247         1.893882        -0.591240
 H        -0.550241         0.295992        -0.941401
 H         2.132012        -0.933641        -1.681051
 H         2.660426         0.830854        -1.840315
 H         2.677007        -2.541597        -0.132301
 H         2.786645        -2.088940         1.580026
 H         4.506270         1.729605         1.431559
 H         4.166474         2.119571        -0.422874
 H         2.499779         0.928005         1.885419
