19
Iteration:  4491charge 0 multiplicity 1
 C         0.171143         0.993128        -0.088859
 C         1.449064         0.279472        -0.103366
 C         2.465598         0.024192        -1.282355
 C         3.340054        -0.522883         0.109437
 C         2.609408        -1.675392         0.617265
 O         1.303814        -1.126328         0.544982
 O         4.695397         0.146729         0.087682
 C         4.033266         1.490909         0.385762
 C         2.759204         0.671455         0.839117
 H        -0.120048         1.314896         0.919391
 H         0.362768         1.754255        -0.874743
 H        -0.648459         0.488482        -0.468184
 H         2.271313        -0.778439        -2.082844
 H         2.925620         0.866793        -1.707944
 H         2.675906        -2.655573         0.010412
 H         2.923547        -1.828894         1.708794
 H         4.505787         1.958226         1.272058
 H         3.805606         2.263722        -0.484756
 H         2.665716         0.664343         1.956692
