19
Iteration:   761
 C         0.050909         0.827565        -0.228525
 C         1.448119         0.241259        -0.080094
 C         2.404791        -0.032385        -1.202435
 C         3.346442        -0.348437         0.031578
 C         2.723946        -1.666894         0.492606
 O         1.311523        -1.107377         0.483688
 O         4.669197         0.138754         0.227441
 C         4.153653         1.456530         0.540831
 C         2.712067         0.835796         0.808746
 H        -0.216427         0.665636         0.773828
 H        -0.020205         1.934905        -0.263266
 H        -0.671072         0.374178        -0.972116
 H         2.239271        -0.884589        -1.913118
 H         2.780021         0.783350        -1.864120
 H         2.974029        -2.589511        -0.117929
 H         3.083530        -1.898301         1.560444
 H         4.657396         1.805404         1.469145
 H         4.346922         2.221772        -0.219866
 H         2.342536         0.834512         1.912314
