19
Iteration:  4999
 C         0.056355         0.943940        -0.147960
 C         1.448186         0.316497        -0.014506
 C         2.514353        -0.049522        -1.186224
 C         3.340418        -0.374977         0.050104
 C         2.630704        -1.668970         0.519396
 O         1.265293        -1.122407         0.549136
 O         4.685883         0.123430         0.121076
 C         4.165231         1.424426         0.392944
 C         2.727949         0.747607         0.814515
 H        -0.157332         1.358405         0.891525
 H         0.189274         1.916607        -0.712367
 H        -0.775289         0.205682        -0.513083
 H         2.042236        -0.909807        -1.630054
 H         2.808151         0.781874        -1.797742
 H         2.796507        -2.500285        -0.234530
 H         2.995064        -2.013519         1.511850
 H         4.799792         1.718135         1.233052
 H         4.119064         2.131668        -0.433583
 H         2.651926         0.735766         1.918502
