19
Iteration:   941
 C         0.139441         0.913380        -0.288494
 C         1.452141         0.291605        -0.022241
 C         2.537339         0.014389        -1.243500
 C         3.340801        -0.384044         0.001722
 C         2.671131        -1.694953         0.583476
 O         1.387816        -1.113630         0.593959
 O         4.646360         0.140261         0.102099
 C         3.965365         1.500884         0.527340
 C         2.704189         0.683040         0.869676
 H        -0.410286         0.849319         0.737566
 H         0.206419         1.944973        -0.601090
 H        -0.366166         0.435286        -1.139478
 H         2.190433        -0.831641        -1.894823
 H         2.766201         0.920121        -1.757694
 H         2.719822        -2.636229        -0.107987
 H         3.010943        -2.078476         1.618686
 H         4.478259         1.942153         1.309032
 H         3.905533         2.254693        -0.192450
 H         2.518081         0.393018         1.854982
