19
Iteration:  4998
 C         0.060860         0.948274        -0.146857
 C         1.450002         0.311984        -0.012612
 C         2.514459        -0.044164        -1.186567
 C         3.339073        -0.374360         0.055926
 C         2.638787        -1.681726         0.523024
 O         1.263891        -1.127187         0.548069
 O         4.682504         0.125109         0.118150
 C         4.166879         1.425918         0.392615
 C         2.721350         0.753623         0.814429
 H        -0.122245         1.374657         0.875104
 H         0.179676         1.922792        -0.684979
 H        -0.780433         0.204929        -0.515742
 H         2.000052        -0.913951        -1.635953
 H         2.844834         0.758006        -1.814577
 H         2.786860        -2.470866        -0.263045
 H         2.969790        -1.990823         1.523281
 H         4.773119         1.726421         1.245926
 H         4.171798         2.141375        -0.476366
 H         2.623930         0.714687         1.904006
