19
Iteration:  3255
 C         0.103124         0.774090        -0.256961
 C         1.474419         0.280406        -0.016680
 C         2.393057         0.084655        -1.169146
 C         3.297919        -0.405377         0.042074
 C         2.619496        -1.640491         0.533055
 O         1.372151        -0.990107         0.615341
 O         4.699204         0.023700         0.112190
 C         4.106376         1.420033         0.389265
 C         2.729819         0.782304         0.893187
 H        -0.561406         0.759262         0.627337
 H         0.228369         1.888596        -0.597545
 H        -0.490123         0.157297        -1.092478
 H         2.319670        -0.423731        -2.112653
 H         2.943395         0.996122        -1.468903
 H         2.541787        -2.700684         0.062387
 H         3.031427        -1.804185         1.620878
 H         4.596433         1.967062         1.104062
 H         4.131169         1.852664        -0.641597
 H         2.715478         0.732055         1.982774
