19
Iteration:   913
 C         0.096389         0.840511        -0.279530
 C         1.412620         0.281577         0.012555
 C         2.468464        -0.003441        -1.077534
 C         3.344145        -0.359963         0.086011
 C         2.710950        -1.691283         0.538496
 O         1.340768        -1.122021         0.465829
 O         4.709447         0.066660         0.083983
 C         4.103954         1.488541         0.498659
 C         2.666436         0.845932         0.825895
 H        -0.535252         0.447835         0.489949
 H         0.075773         1.967724        -0.309302
 H        -0.344651         0.282355        -1.139352
 H         2.178100        -0.739809        -1.809891
 H         2.665784         0.972309        -1.624591
 H         2.778140        -2.475110        -0.176099
 H         2.939262        -1.953842         1.541079
 H         4.698062         1.879233         1.479258
 H         4.108838         2.292037        -0.370462
 H         2.289360         0.897581         1.963531
