19
Iteration:  4853
 C         0.116045         0.936056        -0.074867
 C         1.494096         0.303606        -0.081134
 C         2.450343        -0.022619        -1.186219
 C         3.285717        -0.417701         0.039727
 C         2.653914        -1.669098         0.564940
 O         1.332423        -1.041141         0.513886
 O         4.690191         0.069736         0.087452
 C         4.080258         1.412557         0.403541
 C         2.722776         0.727587         0.820962
 H        -0.151668         1.237102         0.951679
 H         0.244729         1.953896        -0.543488
 H        -0.676880         0.326450        -0.714516
 H         2.209611        -0.905098        -1.859654
 H         2.929655         0.859461        -1.742138
 H         2.602942        -2.619177         0.039595
 H         2.979560        -1.702351         1.604658
 H         4.506782         1.833037         1.317403
 H         4.103657         2.287085        -0.294444
 H         2.540860         0.534057         1.868482
