19
Iteration:  2285charge 0 multiplicity 1
 C         0.280946         1.037915        -0.166200
 C         1.517986         0.214124        -0.110524
 C         2.453945        -0.105311        -1.241147
 C         3.334098        -0.448543         0.009391
 C         2.679923        -1.701653         0.642080
 O         1.281972        -1.115175         0.581894
 O         4.672032         0.173318         0.136441
 C         3.934674         1.463707         0.418810
 C         2.678827         0.724489         0.824303
 H        -0.304686         0.944990         0.777070
 H         0.508815         2.062601        -0.425591
 H        -0.353367         0.642158        -0.900798
 H         2.064662        -0.683371        -2.074902
 H         2.831346         0.824750        -1.744488
 H         2.899278        -2.588570        -0.021465
 H         2.961845        -1.824739         1.651496
 H         4.359199         1.914058         1.335251
 H         4.018051         2.286413        -0.427472
 H         2.472669         0.777898         1.914931
