19
Iteration:  1213charge 0 multiplicity 1
 C         0.138098         0.865546        -0.265672
 C         1.464983         0.261052        -0.085200
 C         2.495859         0.003101        -1.122667
 C         3.316608        -0.380202         0.091281
 C         2.602108        -1.661227         0.562897
 O         1.354359        -1.113105         0.561181
 O         4.652809         0.120486         0.047426
 C         4.068167         1.421877         0.522317
 C         2.703646         0.844610         0.849807
 H        -0.588669         0.846194         0.689403
 H         0.198706         1.872716        -0.736399
 H        -0.376885         0.140897        -1.056344
 H         2.284545        -0.785736        -1.906306
 H         2.858453         0.977637        -1.731688
 H         2.852740        -2.477095        -0.116419
 H         3.093498        -2.024530         1.525630
 H         4.614842         1.700256         1.376277
 H         4.162456         2.296340        -0.185050
 H         2.597760         0.589157         1.868836
