19
Iteration:  2956charge 0 multiplicity 1
 C         0.057182         0.846116        -0.231392
 C         1.476477         0.349771        -0.044815
 C         2.440031        -0.028435        -1.153772
 C         3.341074        -0.495725        -0.030379
 C         2.651268        -1.624724         0.622474
 O         1.270260        -0.975135         0.622012
 O         4.723608         0.111285         0.031727
 C         4.108330         1.397571         0.493272
 C         2.811650         0.734057         0.783920
 H        -0.759921         0.726284         0.533751
 H        -0.003646         1.905732        -0.410151
 H        -0.354683         0.199234        -0.969508
 H         2.111779        -0.761802        -1.949786
 H         2.760025         0.893521        -1.608665
 H         2.677334        -2.572067         0.109253
 H         3.068933        -1.794812         1.585003
 H         4.451572         1.740238         1.415701
 H         4.205003         2.252694        -0.206497
 H         2.601777         0.601580         1.864408
