19
Iteration:  3747charge 0 multiplicity 1
 C         0.159977         1.029452        -0.224277
 C         1.469084         0.298950        -0.011776
 C         2.495543        -0.052941        -1.139191
 C         3.314641        -0.450390         0.066641
 C         2.738074        -1.738281         0.599645
 O         1.331921        -1.057757         0.509751
 O         4.628784         0.128389         0.020908
 C         4.024087         1.383790         0.415275
 C         2.661083         0.738242         0.889167
 H        -0.307807         0.854661         0.767797
 H         0.360452         2.149387        -0.394583
 H        -0.509986         0.642451        -1.010055
 H         2.409190        -0.906663        -1.913457
 H         2.829656         0.903574        -1.669422
 H         2.654427        -2.780729         0.183849
 H         2.990810        -1.712941         1.676608
 H         4.490857         1.833334         1.346048
 H         4.085993         2.079224        -0.567959
 H         2.561265         0.808537         2.037361
