19
Iteration:  3549
 C         0.116507         0.779158        -0.180255
 C         1.514482         0.356976        -0.065154
 C         2.456202         0.020484        -1.223122
 C         3.350910        -0.413238         0.044053
 C         2.548172        -1.603599         0.620103
 O         1.283257        -1.014196         0.536388
 O         4.691146         0.116870         0.064838
 C         4.112932         1.361403         0.437056
 C         2.757540         0.756926         0.854581
 H        -0.164409         0.867871         0.895970
 H        -0.121879         1.773085        -0.634996
 H        -0.429794        -0.027641        -0.738610
 H         2.323262        -0.868159        -1.987545
 H         3.031512         0.900895        -1.582767
 H         2.611867        -2.586991         0.192142
 H         2.801380        -1.683042         1.656700
 H         4.819957         1.658029         1.207066
 H         4.043876         2.119465        -0.336692
 H         2.500095         0.621371         1.954352
