19
Iteration:  3324charge 0 multiplicity 1
 C         0.318228         1.058562        -0.112359
 C         1.500051         0.241568        -0.138253
 C         2.421084        -0.118802        -1.237528
 C         3.314714        -0.424909        -0.006583
 C         2.633351        -1.631005         0.627256
 O         1.293532        -1.155774         0.600778
 O         4.747908         0.172499         0.126386
 C         3.925375         1.471991         0.412002
 C         2.639197         0.670797         0.766372
 H         0.002938         1.134615         1.011066
 H         0.608495         2.114220        -0.588795
 H        -0.623981         0.655679        -0.677801
 H         2.233285        -0.747520        -2.111439
 H         2.796993         0.808728        -1.644791
 H         2.757777        -2.628758         0.098753
 H         3.135912        -1.738275         1.675176
 H         4.302458         1.838477         1.450089
 H         3.858842         2.257484        -0.318260
 H         2.527196         0.324256         1.834027
