19
Iteration:  4502
 C         0.196344         1.111661        -0.109219
 C         1.510244         0.236407        -0.071814
 C         2.493118        -0.062610        -1.148115
 C         3.379467        -0.400007         0.065577
 C         2.674564        -1.721395         0.621229
 O         1.307724        -1.144349         0.511785
 O         4.637569         0.161201         0.075498
 C         3.981038         1.447798         0.369982
 C         2.668936         0.665405         0.788960
 H        -0.130052         1.417662         0.893842
 H         0.148688         2.065735        -0.697100
 H        -0.477722         0.407747        -0.474633
 H         2.167579        -0.792246        -1.960990
 H         2.849783         0.830235        -1.580953
 H         2.649461        -2.678800        -0.012308
 H         2.934158        -1.983205         1.710377
 H         4.475918         1.911662         1.248608
 H         4.121798         2.214861        -0.518074
 H         2.578675         0.515340         1.888600
