19
Iteration:  2649charge 0 multiplicity 1
 C         0.051135         0.875080        -0.281163
 C         1.503047         0.282656        -0.008254
 C         2.347026        -0.085524        -1.231873
 C         3.433672        -0.397830        -0.036855
 C         2.668165        -1.627000         0.622359
 O         1.267217        -0.976505         0.641896
 O         4.743438         0.084546         0.100254
 C         4.108313         1.460026         0.526152
 C         2.722613         0.728478         0.743702
 H        -0.347112         0.867800         0.733317
 H         0.176657         1.993353        -0.520913
 H        -0.410370         0.105978        -0.930880
 H         2.052576        -0.890554        -1.949938
 H         2.594956         0.898263        -1.750265
 H         2.582494        -2.558743         0.029104
 H         3.096643        -1.728336         1.623451
 H         4.498966         1.703537         1.431816
 H         4.258943         2.212280        -0.246681
 H         2.608074         0.350958         1.795154
