19
Iteration:  1864charge 0 multiplicity 1
 C         0.172751         1.094631        -0.214972
 C         1.490540         0.280794        -0.060359
 C         2.465806        -0.101919        -1.141970
 C         3.377904        -0.417531         0.119826
 C         2.722244        -1.704557         0.600743
 O         1.341040        -1.163201         0.415979
 O         4.675467         0.200030         0.101927
 C         3.957192         1.392932         0.467388
 C         2.639626         0.709793         0.853712
 H        -0.226317         1.266381         0.764174
 H         0.317039         1.957285        -0.725435
 H        -0.655960         0.587769        -0.683483
 H         2.175296        -0.939056        -1.854823
 H         2.741935         0.674527        -1.741403
 H         2.600281        -2.592929         0.036182
 H         3.034089        -1.765338         1.659053
 H         4.544925         2.030048         1.224557
 H         3.921157         2.135479        -0.340447
 H         2.660707         0.513171         1.976052
