19
Iteration:  4661
 C         0.214876         1.087401        -0.160647
 C         1.513307         0.295521        -0.066436
 C         2.366278        -0.113716        -1.187397
 C         3.379470        -0.431041         0.088436
 C         2.682625        -1.710463         0.550540
 O         1.312189        -1.134176         0.525949
 O         4.710117         0.172260         0.059399
 C         3.991161         1.447145         0.426792
 C         2.692622         0.652405         0.880925
 H        -0.039988         1.400354         0.920962
 H         0.197252         2.049111        -0.729042
 H        -0.663012         0.494628        -0.563540
 H         1.935157        -0.733560        -2.017001
 H         2.950978         0.621683        -1.643069
 H         2.877777        -2.611316        -0.101729
 H         2.780708        -1.962434         1.619894
 H         4.296306         2.106880         1.293712
 H         3.934062         2.243913        -0.408402
 H         2.581744         0.558581         1.970236
