19
Iteration:   210
 C         0.043869         0.921363        -0.133282
 C         1.471767         0.258149        -0.107462
 C         2.384153        -0.013921        -1.326898
 C         3.453293        -0.433310        -0.000187
 C         2.733672        -1.689969         0.600863
 O         1.371691        -1.011197         0.509851
 O         4.705677         0.165795         0.164931
 C         4.003233         1.450061         0.559084
 C         2.707503         0.684739         0.810956
 H        -0.479496         0.501669         0.667953
 H        -0.098094         2.080863        -0.096999
 H        -0.438104         0.363885        -0.992548
 H         2.094111        -0.845609        -1.916110
 H         2.767139         0.869178        -1.769883
 H         2.595177        -2.590286         0.088040
 H         2.898223        -1.900435         1.606025
 H         4.650588         2.074115         1.382039
 H         3.846829         2.087718        -0.349871
 H         2.651188         0.274766         1.842616
