19
Iteration:  4735charge 0 multiplicity 1
 C         0.030274         0.888954        -0.141521
 C         1.470548         0.337832        -0.032798
 C         2.427709        -0.072408        -1.211209
 C         3.360089        -0.418214        -0.022711
 C         2.596796        -1.550064         0.583848
 O         1.302699        -1.059899         0.555641
 O         4.764205         0.060812         0.114080
 C         4.164354         1.413596         0.445523
 C         2.690970         0.755339         0.826885
 H        -0.457115         0.723150         0.747077
 H        -0.111465         1.914824        -0.224148
 H        -0.405776         0.375817        -1.024629
 H         2.188246        -0.844585        -1.976977
 H         2.673333         0.834455        -1.768982
 H         2.669144        -2.393577        -0.172242
 H         3.072547        -1.946676         1.491130
 H         4.707594         1.745210         1.283518
 H         4.237699         2.278733        -0.212692
 H         2.755676         0.547851         1.863965
