19
Iteration:  4715charge 0 multiplicity 1
 C         0.106423         0.911647        -0.133021
 C         1.470612         0.313720        -0.088228
 C         2.455580         0.080388        -1.246787
 C         3.379766        -0.463914         0.017573
 C         2.708527        -1.708183         0.571719
 O         1.308151        -0.991823         0.600143
 O         4.648446         0.078346         0.113723
 C         4.075919         1.383289         0.467695
 C         2.734299         0.702819         0.786785
 H        -0.415204         0.914209         0.814309
 H         0.088578         1.957135        -0.352258
 H        -0.405746         0.343815        -0.915721
 H         2.032794        -0.732556        -1.912474
 H         2.848787         0.901426        -1.812694
 H         2.589216        -2.745259         0.110328
 H         3.097052        -1.822810         1.618788
 H         4.527031         2.076003         1.250604
 H         3.893718         2.000180        -0.493064
 H         2.555970         0.596033         1.858794
