19
Iteration:  1689charge 0 multiplicity 1
 C         0.102831         0.981894        -0.246269
 C         1.503264         0.247136        -0.053761
 C         2.509506         0.019255        -1.264436
 C         3.408086        -0.454058         0.071021
 C         2.653721        -1.716539         0.633338
 O         1.292660        -1.114652         0.558010
 O         4.702798         0.139030         0.147117
 C         4.017601         1.485774         0.456076
 C         2.652969         0.726003         0.792104
 H        -0.242265         1.297127         0.797888
 H         0.309096         1.924738        -0.813676
 H        -0.668279         0.228203        -0.689852
 H         2.236742        -0.711897        -2.017524
 H         2.958010         1.034560        -1.617557
 H         2.587165        -2.584793        -0.065086
 H         3.148672        -2.068503         1.634806
 H         4.222573         2.025453         1.418517
 H         4.053368         2.084435        -0.410673
 H         2.581054         0.414750         1.921487
