19
Iteration:   707charge 0 multiplicity 1
 C         0.168122         0.960682        -0.208087
 C         1.495443         0.212803        -0.021616
 C         2.536385        -0.053906        -1.211273
 C         3.358481        -0.381823         0.143713
 C         2.629529        -1.719575         0.540775
 O         1.319910        -1.165281         0.483468
 O         4.688593         0.223254         0.078116
 C         3.950763         1.520311         0.487088
 C         2.691438         0.703298         0.869467
 H        -0.462920         0.816938         0.670738
 H         0.273985         2.110609        -0.347828
 H        -0.325894         0.635930        -1.209862
 H         2.178917        -0.905210        -1.863932
 H         2.972464         0.865748        -1.639950
 H         2.803309        -2.568153        -0.188725
 H         2.949373        -1.991254         1.619825
 H         4.482274         2.046899         1.251426
 H         3.882568         2.181381        -0.318683
 H         2.437314         0.486009         1.937701
