19
Iteration:   848charge 0 multiplicity 1
 C         0.160792         0.993236        -0.162281
 C         1.460208         0.244224        -0.074954
 C         2.471173        -0.091150        -1.227026
 C         3.335853        -0.383292         0.079922
 C         2.770380        -1.696499         0.539026
 O         1.320836        -1.188962         0.473427
 O         4.646221         0.218122         0.158160
 C         4.057083         1.446875         0.526138
 C         2.591387         0.741097         0.805472
 H        -0.162994         1.195553         0.801371
 H         0.303787         1.960414        -0.686918
 H        -0.648573         0.484464        -0.713883
 H         2.325353        -0.966974        -1.854044
 H         2.932487         0.850355        -1.638251
 H         2.984361        -2.472061        -0.218852
 H         2.979723        -2.071026         1.580122
 H         4.708862         2.115638         1.254467
 H         3.939396         2.257635        -0.336807
 H         2.287674         0.630931         1.967977
