19
Iteration:  4174charge 0 multiplicity 1
 C         0.096425         0.883264        -0.216946
 C         1.500360         0.364353        -0.060586
 C         2.398005        -0.053596        -1.206379
 C         3.355223        -0.377421         0.023107
 C         2.663769        -1.679418         0.592917
 O         1.220166        -1.105760         0.606168
 O         4.748636         0.087965         0.074354
 C         4.115821         1.472975         0.478305
 C         2.755000         0.758520         0.811968
 H        -0.328881         1.290312         0.787550
 H         0.137744         1.929119        -0.663735
 H        -0.577321         0.160261        -0.735188
 H         1.972845        -0.902349        -1.800010
 H         2.786590         0.755827        -1.900603
 H         2.570393        -2.575436        -0.108057
 H         3.133618        -1.853769         1.563115
 H         4.565788         1.898654         1.374305
 H         4.344338         2.143490        -0.306990
 H         2.567709         0.523497         1.929637
