19
Iteration:   421
 C         0.212880         0.965856        -0.228845
 C         1.492786         0.285923        -0.074381
 C         2.418518        -0.032311        -1.191946
 C         3.419619        -0.437859         0.018595
 C         2.759671        -1.666050         0.579049
 O         1.259400        -1.168586         0.491442
 O         4.645523         0.259028         0.102792
 C         3.966258         1.465861         0.524900
 C         2.675928         0.644730         0.869814
 H        -0.411651         1.056427         0.762194
 H         0.278387         1.935787        -0.687754
 H        -0.428103         0.278514        -0.817293
 H         2.294700        -0.937888        -1.737187
 H         2.930609         0.807665        -1.693445
 H         2.746267        -2.625497         0.095525
 H         3.010465        -1.839315         1.616305
 H         4.516283         1.947029         1.473812
 H         3.921874         2.242156        -0.303586
 H         2.600395         0.485025         1.909805
