19
Iteration:  1335charge 0 multiplicity 1
 C         0.125814         0.875062        -0.252761
 C         1.467382         0.255233        -0.087251
 C         2.531981        -0.010906        -1.237081
 C         3.392769        -0.375079        -0.012337
 C         2.671646        -1.609889         0.527082
 O         1.359396        -1.060868         0.629900
 O         4.671047         0.057833         0.117315
 C         3.987136         1.448855         0.534934
 C         2.655082         0.751388         0.879304
 H        -0.360407         1.371673         0.676673
 H         0.177596         1.702286        -1.054153
 H        -0.565341         0.124493        -0.790573
 H         2.060948        -0.797549        -1.960198
 H         2.807179         1.029811        -1.670503
 H         2.491714        -2.536213        -0.025412
 H         3.072172        -1.931152         1.539856
 H         4.620483         1.783010         1.402559
 H         4.046529         2.306346        -0.145479
 H         2.472583         0.487898         1.948624
