19
Iteration:  3150charge 0 multiplicity 1
 C         0.206581         0.931527        -0.136136
 C         1.467851         0.276416         0.024803
 C         2.378459        -0.043717        -1.234251
 C         3.374802        -0.442149         0.119545
 C         2.697376        -1.649174         0.511468
 O         1.221533        -1.098024         0.525120
 O         4.744408         0.120124         0.189270
 C         4.066873         1.401373         0.342605
 C         2.683719         0.786155         0.801471
 H        -0.336676         1.126876         0.776322
 H         0.388025         1.906954        -0.609453
 H        -0.413333         0.442019        -0.806388
 H         1.991797        -0.955159        -1.746794
 H         2.724582         0.762518        -1.815737
 H         2.821750        -2.461168        -0.163375
 H         2.958599        -1.816812         1.521602
 H         4.710150         2.125804         1.003493
 H         3.963573         2.039814        -0.523444
 H         2.516333         0.855359         1.881360
