19
Iteration:  3651
 C         0.212638         1.085927        -0.109026
 C         1.524653         0.221394        -0.033173
 C         2.471556        -0.140203        -1.238309
 C         3.293069        -0.448294         0.136533
 C         2.669147        -1.676771         0.666195
 O         1.268461        -1.120620         0.409280
 O         4.658339         0.169615         0.031957
 C         4.006870         1.501927         0.401070
 C         2.741865         0.724621         0.883631
 H        -0.179383         1.203682         0.912991
 H         0.285526         1.891884        -0.845560
 H        -0.559640         0.464901        -0.599290
 H         2.173173        -0.912650        -1.928990
 H         2.942877         0.696615        -1.778744
 H         2.794258        -2.548437         0.093228
 H         2.817363        -1.850891         1.741101
 H         4.408261         1.858595         1.343991
 H         4.046578         2.194150        -0.378924
 H         2.691153         0.504090         1.987923
