19
Iteration:  4699
 C         0.216310         0.979178        -0.153746
 C         1.517183         0.293936        -0.026670
 C         2.426856        -0.033938        -1.210044
 C         3.344027        -0.405930         0.025934
 C         2.647199        -1.638685         0.578363
 O         1.324196        -1.109555         0.551077
 O         4.714316         0.080716         0.086229
 C         3.981743         1.457682         0.379923
 C         2.660955         0.718043         0.876215
 H        -0.171979         0.967764         0.898226
 H         0.400352         1.985673        -0.616210
 H        -0.558283         0.402873        -0.666847
 H         2.173905        -0.761641        -1.954352
 H         2.749833         1.013954        -1.517096
 H         2.693051        -2.394305        -0.182239
 H         2.866286        -2.002884         1.584828
 H         4.549117         1.645351         1.241276
 H         4.057820         2.058894        -0.476482
 H         2.382561         0.610046         1.947829
