19
Iteration:  4198
 C         0.188591         0.995312        -0.107206
 C         1.503186         0.278890        -0.092291
 C         2.426295        -0.078297        -1.227789
 C         3.369421        -0.419766         0.083960
 C         2.682996        -1.642007         0.602486
 O         1.352555        -1.092414         0.500667
 O         4.639838         0.107391         0.102390
 C         3.969464         1.379693         0.414480
 C         2.695118         0.742539         0.795386
 H        -0.158085         1.256054         0.950339
 H         0.308563         2.112329        -0.318665
 H        -0.624405         0.485758        -0.678091
 H         2.328441        -0.924735        -1.902123
 H         2.988860         0.717619        -1.759318
 H         2.551539        -2.637707         0.185113
 H         2.997496        -1.532181         1.645078
 H         4.401049         2.045651         1.213084
 H         3.973224         2.028160        -0.470116
 H         2.621920         0.636809         1.948571
