19
Iteration:  1032
 C         0.146122         0.814253        -0.213400
 C         1.499650         0.257123        -0.055630
 C         2.441578        -0.048714        -1.214166
 C         3.370298        -0.402758        -0.049676
 C         2.669233        -1.645489         0.571165
 O         1.252100        -1.059334         0.505358
 O         4.713696         0.176493         0.216547
 C         4.024553         1.456280         0.489620
 C         2.769034         0.742880         0.835349
 H        -0.271103         0.942726         0.816369
 H         0.014058         1.890179        -0.697475
 H        -0.542675         0.159618        -0.870644
 H         1.946698        -0.646519        -1.941771
 H         2.833231         0.934184        -1.609874
 H         2.743123        -2.550082        -0.122019
 H         3.034208        -1.870647         1.601913
 H         4.580255         2.043619         1.335067
 H         3.881395         2.136202        -0.307312
 H         2.573988         0.513010         1.983398
