19
Iteration:  1473
 C         0.137010         0.885945        -0.258830
 C         1.479360         0.311323        -0.090322
 C         2.488168         0.042981        -1.163984
 C         3.356041        -0.429169         0.034389
 C         2.665221        -1.670177         0.617578
 O         1.298287        -1.091976         0.543890
 O         4.694997         0.167651         0.100185
 C         4.052078         1.378886         0.469182
 C         2.694425         0.667241         0.885459
 H        -0.361380         1.165224         0.691572
 H         0.014413         1.773424        -0.838657
 H        -0.385164         0.175998        -0.929999
 H         2.141059        -0.637198        -1.920583
 H         3.027512         0.987523        -1.584725
 H         2.724782        -2.536590        -0.136527
 H         2.868835        -1.845332         1.717436
 H         4.386248         2.027598         1.275933
 H         4.047103         2.182690        -0.414293
 H         2.467378         0.757112         2.011326
