19
Iteration:   837
 C         0.131933         1.040316        -0.213301
 C         1.439238         0.244481        -0.137582
 C         2.471008        -0.098594        -1.089822
 C         3.412902        -0.380990         0.049454
 C         2.773253        -1.731143         0.523378
 O         1.304098        -1.221629         0.449178
 O         4.677137         0.209401         0.116790
 C         3.983102         1.507473         0.516041
 C         2.644502         0.783222         0.922510
 H        -0.104620         1.345821         0.743484
 H         0.337311         1.944370        -0.809548
 H        -0.690843         0.422892        -0.601355
 H         2.263190        -0.883382        -1.833710
 H         2.690326         0.767071        -1.803348
 H         2.767956        -2.645828        -0.113851
 H         3.057406        -1.979102         1.586222
 H         4.568045         1.889311         1.476834
 H         4.000572         2.040447        -0.519147
 H         2.427709         0.426267         2.065730
