19
Iteration:  3334charge 0 multiplicity 1
 C         0.256945         1.125714        -0.164508
 C         1.467233         0.153595        -0.085002
 C         2.453659        -0.058439        -1.254751
 C         3.371652        -0.415290        -0.013920
 C         2.684896        -1.739551         0.681162
 O         1.291807        -1.161202         0.554835
 O         4.751217         0.172456         0.101813
 C         3.896297         1.462886         0.430496
 C         2.652958         0.712002         0.810439
 H         0.003350         1.422174         0.928181
 H         0.639651         2.179399        -0.563170
 H        -0.730185         0.707174        -0.609746
 H         2.109727        -0.852962        -1.930093
 H         2.643933         0.885275        -1.665981
 H         2.740620        -2.656670        -0.002636
 H         2.812475        -1.952368         1.838241
 H         4.511485         2.019697         1.193897
 H         3.818141         2.158257        -0.372608
 H         2.648555         0.520921         1.922979
