19
Iteration:   592charge 0 multiplicity 1
 C         0.100140         0.828537        -0.208604
 C         1.495673         0.267613        -0.036644
 C         2.500320         0.045130        -1.257118
 C         3.385347        -0.404605         0.061402
 C         2.683373        -1.650404         0.530845
 O         1.375366        -1.106136         0.536711
 O         4.680627         0.092210         0.205522
 C         3.967099         1.443240         0.481355
 C         2.682681         0.795489         0.796411
 H        -0.406968         0.925014         0.739671
 H         0.178856         1.806506        -0.587132
 H        -0.461134         0.293987        -0.915038
 H         2.201526        -0.599603        -2.036520
 H         2.653307         1.103908        -1.631040
 H         2.595408        -2.487068        -0.182310
 H         3.015692        -1.956341         1.521473
 H         4.401339         1.890852         1.371922
 H         4.030213         2.219501        -0.389647
 H         2.414351         0.631877         1.921341
