19
Iteration:  4641charge 0 multiplicity 1
 C         0.224738         0.966206        -0.094576
 C         1.513684         0.279889        -0.017902
 C         2.510847         0.002575        -1.245861
 C         3.370230        -0.412775        -0.079816
 C         2.670755        -1.696892         0.622539
 O         1.302653        -1.067384         0.563679
 O         4.633531         0.131570         0.112419
 C         3.990191         1.419312         0.416308
 C         2.646765         0.669523         0.826276
 H        -0.158457         1.451712         0.868144
 H         0.404654         1.928841        -0.649465
 H        -0.476712         0.364856        -0.675662
 H         2.329964        -0.884933        -1.905871
 H         2.638948         0.823185        -1.855784
 H         2.497069        -2.560136         0.038326
 H         3.065318        -2.003598         1.575458
 H         4.622610         1.868118         1.203011
 H         3.968632         2.173775        -0.317521
 H         2.290848         0.584713         1.874994
