19
Iteration:  1033
 C         0.151263         0.814880        -0.215890
 C         1.482891         0.252173        -0.055387
 C         2.443295        -0.044436        -1.215456
 C         3.370245        -0.404410        -0.045866
 C         2.675934        -1.653434         0.575205
 O         1.250220        -1.051026         0.507619
 O         4.710254         0.184067         0.215073
 C         4.032401         1.447878         0.487706
 C         2.769490         0.748803         0.833920
 H        -0.256031         0.907121         0.799093
 H        -0.000077         1.881561        -0.696130
 H        -0.512470         0.158703        -0.879752
 H         1.929580        -0.649789        -1.933443
 H         2.829378         0.918197        -1.616030
 H         2.740392        -2.514456        -0.105682
 H         3.043933        -1.894821         1.555444
 H         4.567115         2.025206         1.330591
 H         3.896374         2.119124        -0.258122
 H         2.579254         0.493764         1.967615
