19
Iteration:  2573charge 0 multiplicity 1
 C         0.256190         1.013937        -0.170295
 C         1.531698         0.211866        -0.076554
 C         2.446446        -0.113487        -1.201707
 C         3.330878        -0.438244         0.005295
 C         2.621313        -1.676514         0.619641
 O         1.241185        -1.080871         0.585486
 O         4.724040         0.157932         0.163976
 C         3.960052         1.530391         0.379906
 C         2.717924         0.713142         0.820721
 H        -0.109537         0.950727         0.857618
 H         0.575385         2.056070        -0.582674
 H        -0.387652         0.452654        -0.901459
 H         2.054138        -0.940432        -1.891088
 H         2.795767         0.711554        -1.834960
 H         2.778380        -2.516204        -0.141797
 H         3.037937        -1.900872         1.668176
 H         4.453978         2.093558         1.103651
 H         3.758741         1.992491        -0.584815
 H         2.512005         0.484700         1.893774
