19
Iteration:   498
 C         0.038907         0.880446        -0.194142
 C         1.467863         0.254532        -0.068221
 C         2.487601        -0.006543        -1.194776
 C         3.401918        -0.395723         0.047472
 C         2.761888        -1.651224         0.516639
 O         1.301127        -1.056462         0.494237
 O         4.729828         0.156140         0.236310
 C         4.038361         1.437646         0.478664
 C         2.649563         0.649009         0.775512
 H        -0.336730         0.986516         0.933040
 H        -0.003724         1.903344        -0.636022
 H        -0.720731         0.301702        -0.825971
 H         2.100033        -0.751761        -1.941855
 H         2.655867         0.959640        -1.640515
 H         2.781674        -2.546666        -0.143501
 H         3.087121        -1.836176         1.543665
 H         4.586570         2.005955         1.364500
 H         4.057683         2.180063        -0.411048
 H         2.437265         0.691889         1.833365
