19
Iteration:   646
 C         0.152707         0.850427        -0.198983
 C         1.508556         0.267743        -0.044925
 C         2.530373         0.071341        -1.195672
 C         3.354784        -0.416359         0.021736
 C         2.702429        -1.666709         0.554339
 O         1.276447        -1.146834         0.505231
 O         4.720492         0.172601         0.140273
 C         4.007154         1.447564         0.532238
 C         2.618581         0.722659         0.782623
 H        -0.054544         1.274582         0.809736
 H         0.085528         1.689140        -0.873364
 H        -0.586440         0.143956        -0.494265
 H         2.142632        -0.596136        -1.911387
 H         2.933028         0.942576        -1.807435
 H         2.657527        -2.635829         0.114556
 H         2.909733        -1.747856         1.616611
 H         4.462597         1.913963         1.436129
 H         3.992146         2.199478        -0.393182
 H         2.303370         0.590675         1.853241
