19
Iteration:  3615charge 0 multiplicity 1
 C         0.266574         1.084072        -0.152091
 C         1.462400         0.225919        -0.068942
 C         2.476124        -0.119864        -1.238690
 C         3.335716        -0.458303         0.061183
 C         2.666717        -1.697915         0.579305
 O         1.319145        -1.080176         0.607192
 O         4.689470         0.185446         0.117783
 C         3.914179         1.445876         0.361877
 C         2.689554         0.679486         0.817384
 H        -0.292698         1.224379         0.778361
 H         0.514483         2.170246        -0.353796
 H        -0.367834         0.558031        -0.906410
 H         2.184909        -0.951859        -2.003734
 H         2.905257         0.820432        -1.686973
 H         2.653107        -2.560852        -0.092632
 H         2.913594        -2.004406         1.587033
 H         4.346899         1.913212         1.258296
 H         3.834150         2.139510        -0.360136
 H         2.722878         0.602751         1.957448
