19
Iteration:  3199charge 0 multiplicity 1
 C         0.283913         1.041338        -0.123042
 C         1.499629         0.242356        -0.104019
 C         2.451999        -0.162926        -1.258637
 C         3.370384        -0.380987         0.109696
 C         2.714979        -1.690820         0.704053
 O         1.275184        -1.081599         0.491050
 O         4.633465         0.195895        -0.022500
 C         3.991228         1.414922         0.489807
 C         2.618222         0.718646         0.828937
 H         0.130614         1.214989         0.968225
 H         0.326349         2.021679        -0.659263
 H        -0.671198         0.572936        -0.638766
 H         2.256003        -1.070323        -1.839879
 H         2.837070         0.770883        -1.856773
 H         2.755411        -2.557623        -0.078651
 H         2.892181        -2.022694         1.823212
 H         4.366303         1.767909         1.416286
 H         4.125168         2.292989        -0.213947
 H         2.564579         0.500280         1.910183
