19
Iteration:  4064
 C         0.191323         1.057094        -0.052953
 C         1.569375         0.259632        -0.087324
 C         2.545228        -0.083384        -1.300676
 C         3.395864        -0.453950         0.027127
 C         2.601869        -1.735130         0.622671
 O         1.220653        -1.064641         0.573655
 O         4.670247         0.185824         0.165571
 C         3.960977         1.419734         0.340795
 C         2.715738         0.678600         0.770985
 H        -0.249814         1.052323         1.001103
 H         0.389698         2.110993        -0.349266
 H        -0.568261         0.779133        -0.804384
 H         2.157966        -1.031004        -1.642669
 H         3.121573         0.656791        -1.832730
 H         2.714278        -2.604015         0.069775
 H         2.938650        -1.746808         1.585808
 H         4.377692         2.017683         1.089809
 H         3.875270         2.018716        -0.546646
 H         2.511122         0.603747         1.849977
