19
Iteration:   226charge 0 multiplicity 1
 C         0.158142         0.900384        -0.080326
 C         1.508485         0.305576        -0.101057
 C         2.497770        -0.034221        -1.203908
 C         3.336336        -0.431746         0.009914
 C         2.669468        -1.655298         0.549245
 O         1.296002        -1.153023         0.505918
 O         4.731435         0.210988         0.187433
 C         3.969428         1.458298         0.427726
 C         2.670447         0.675032         0.793037
 H        -0.383787         0.737255         0.904206
 H         0.350819         1.937339        -0.115626
 H        -0.500511         0.632597        -0.881776
 H         2.158190        -0.713234        -2.068034
 H         2.878954         0.884457        -1.777389
 H         2.840065        -2.537527        -0.148387
 H         3.033527        -1.831873         1.614871
 H         4.315097         1.937620         1.303380
 H         4.030241         2.154992        -0.407755
 H         2.407568         0.760611         1.843602
