19
Iteration:  1761charge 0 multiplicity 1
 C         0.109013         0.931313        -0.235056
 C         1.473956         0.217078        -0.089942
 C         2.552390         0.032526        -1.215332
 C         3.340269        -0.395967         0.038263
 C         2.644566        -1.617356         0.641989
 O         1.318738        -1.098574         0.525215
 O         4.723247         0.091782         0.111084
 C         3.965643         1.458166         0.427775
 C         2.677873         0.711043         0.892879
 H        -0.455074         0.769896         0.674892
 H         0.318818         2.041690        -0.302579
 H        -0.432313         0.489848        -1.033753
 H         2.365154        -0.753983        -1.885240
 H         2.818510         1.105765        -1.533514
 H         2.874433        -2.556158         0.115827
 H         2.630821        -1.981434         1.662884
 H         4.644760         1.770582         1.279457
 H         3.998023         2.131952        -0.509677
 H         2.688611         0.556617         1.918625
