19
Iteration:  2631charge 0 multiplicity 1
 C         0.146480         0.935002        -0.141034
 C         1.455829         0.240502        -0.128692
 C         2.474598        -0.062288        -1.254582
 C         3.286209        -0.438975         0.058786
 C         2.655381        -1.598863         0.636465
 O         1.353537        -1.082943         0.578114
 O         4.637588         0.124157         0.117196
 C         4.087365         1.370557         0.433056
 C         2.721971         0.799185         0.779088
 H        -0.424986         0.812133         0.807559
 H         0.414677         2.022572        -0.265679
 H        -0.412318         0.539538        -0.968869
 H         2.124660        -0.846540        -1.894967
 H         2.834066         0.829681        -1.850306
 H         2.810780        -2.573459         0.090995
 H         3.019577        -1.762092         1.734306
 H         4.628751         1.972079         1.281087
 H         4.132579         2.132530        -0.373765
 H         2.367154         0.778793         1.813217
