19
Iteration:  2310
 C         0.134177         1.087908        -0.144108
 C         1.439934         0.255179        -0.068907
 C         2.474116        -0.186818        -1.162967
 C         3.382083        -0.409939         0.038940
 C         2.678815        -1.696532         0.656003
 O         1.333277        -1.112557         0.394773
 O         4.736581         0.169432         0.117695
 C         4.010285         1.446070         0.463291
 C         2.678772         0.749130         0.869676
 H        -0.271751         1.284579         0.813725
 H         0.247410         1.949950        -0.719142
 H        -0.641175         0.458751        -0.662552
 H         2.018836        -1.004992        -1.728748
 H         2.631638         0.548236        -2.050157
 H         2.821105        -2.586282         0.065700
 H         2.906545        -1.843674         1.724456
 H         4.714995         1.928860         1.119422
 H         3.667417         2.214204        -0.449227
 H         2.503504         0.708469         1.958884
