19
Iteration:  2100
 C         0.032186         0.826789        -0.220151
 C         1.479927         0.326488        -0.063052
 C         2.435176        -0.063277        -1.221182
 C         3.332918        -0.354322         0.065805
 C         2.687450        -1.629622         0.572142
 O         1.321616        -1.025389         0.538040
 O         4.707174         0.111417         0.129823
 C         4.151909         1.374282         0.552243
 C         2.721591         0.782023         0.776493
 H        -0.601650         0.661539         0.693918
 H         0.022460         1.934519        -0.402709
 H        -0.444463         0.400714        -1.079487
 H         2.100700        -0.942315        -1.923020
 H         2.801315         0.769195        -1.780325
 H         2.727141        -2.506989        -0.112366
 H         3.009663        -1.799374         1.575290
 H         4.649406         1.861653         1.353061
 H         3.962429         2.158792        -0.281211
 H         2.511322         0.450717         1.822232
