19
Iteration:  4782charge 0 multiplicity 1
 C         0.171229         1.008576        -0.179056
 C         1.511227         0.343268        -0.037310
 C         2.455041         0.030487        -1.156837
 C         3.332533        -0.422766         0.005752
 C         2.697809        -1.668799         0.553378
 O         1.274880        -1.095510         0.608841
 O         4.730237         0.097233         0.020182
 C         3.954096         1.387508         0.465750
 C         2.701453         0.622971         0.836326
 H        -0.301325         1.116105         0.829199
 H         0.148489         2.074674        -0.464296
 H        -0.368106         0.444262        -0.871415
 H         2.205484        -0.876989        -1.789124
 H         2.824970         0.804801        -1.813734
 H         2.856345        -2.684220         0.042166
 H         2.876480        -1.783800         1.643867
 H         4.599030         2.079706         1.131556
 H         4.018792         2.027012        -0.461648
 H         2.465682         0.661771         1.929013
