19
Iteration:  4058
 C         0.182466         1.053694        -0.079004
 C         1.558493         0.296790        -0.078701
 C         2.490489        -0.113828        -1.259998
 C         3.426583        -0.515250         0.046503
 C         2.611562        -1.742758         0.627084
 O         1.222725        -1.071179         0.553761
 O         4.678549         0.180384         0.169842
 C         3.971670         1.475322         0.360852
 C         2.753150         0.686317         0.745267
 H        -0.258822         1.122255         0.891575
 H         0.400295         2.109051        -0.266521
 H        -0.503182         0.608403        -0.802850
 H         2.120868        -0.942777        -1.918074
 H         2.803548         0.815665        -1.822590
 H         2.498556        -2.681688        -0.078030
 H         2.962755        -1.846191         1.761824
 H         4.394632         2.170440         1.185926
 H         3.941906         2.058061        -0.609243
 H         2.575681         0.661980         1.833687
