19
Iteration:  2043charge 0 multiplicity 1
 C         0.151485         0.972180        -0.229314
 C         1.528228         0.249217        -0.005364
 C         2.548677         0.002988        -1.203378
 C         3.381033        -0.421480         0.104706
 C         2.700355        -1.667321         0.573537
 O         1.291629        -1.117159         0.520722
 O         4.654736         0.118303         0.129897
 C         3.971239         1.438253         0.404497
 C         2.660240         0.720532         0.816241
 H        -0.346893         1.074241         0.732075
 H         0.297115         2.041532        -0.531023
 H        -0.643661         0.505483        -0.772213
 H         2.230929        -0.715534        -1.994841
 H         2.716695         0.989617        -1.670272
 H         2.644566        -2.630142         0.038263
 H         3.049813        -1.918804         1.565832
 H         4.521675         1.859612         1.313613
 H         3.925808         2.159433        -0.504985
 H         2.457833         0.589004         1.978984
