19
Iteration:    47charge 0 multiplicity 1
 C         0.047839         0.828751        -0.261738
 C         1.463948         0.381480         0.011003
 C         2.407288        -0.002604        -1.199905
 C         3.358828        -0.396214        -0.031660
 C         2.700197        -1.644334         0.558337
 O         1.288741        -1.100742         0.575744
 O         4.775598         0.177675         0.120037
 C         4.080377         1.460023         0.492424
 C         2.726658         0.675824         0.886825
 H        -0.606628         0.570803         0.486419
 H         0.061394         1.932067        -0.419445
 H        -0.278681         0.379953        -1.184165
 H         1.945836        -0.895467        -1.771649
 H         2.775350         0.756412        -1.937534
 H         2.724876        -2.545745        -0.138396
 H         2.990344        -2.004160         1.556348
 H         4.580159         2.002252         1.352110
 H         3.958798         2.107214        -0.274693
 H         2.690142         0.346121         1.836754
