19
Iteration:  2097charge 0 multiplicity 1
 C         0.013657         0.829593        -0.207515
 C         1.452009         0.348879        -0.081088
 C         2.403574        -0.078425        -1.179705
 C         3.361670        -0.359708         0.056538
 C         2.721699        -1.619105         0.543287
 O         1.307986        -1.012157         0.531013
 O         4.722895         0.101716         0.137088
 C         4.135843         1.373020         0.543886
 C         2.714593         0.771468         0.771417
 H        -0.623973         0.615959         0.609895
 H        -0.018513         1.932259        -0.389993
 H        -0.433008         0.354870        -1.047773
 H         2.231763        -0.947912        -1.841322
 H         2.966596         0.650620        -1.798065
 H         2.647091        -2.527124        -0.072453
 H         3.013266        -1.716448         1.579666
 H         4.773275         1.885639         1.429586
 H         4.076782         2.252675        -0.274321
 H         2.525998         0.391825         1.850788
