19
Iteration:  2731
 C         0.185988         1.064635        -0.085743
 C         1.470499         0.287716        -0.077039
 C         2.368759        -0.147477        -1.251804
 C         3.414673        -0.459266         0.019375
 C         2.725420        -1.659326         0.634271
 O         1.297234        -1.066831         0.475504
 O         4.677768         0.148171         0.221084
 C         3.949996         1.475807         0.353508
 C         2.732763         0.688320         0.777781
 H         0.010190         1.227673         0.986055
 H         0.258109         1.923297        -0.638309
 H        -0.750857         0.591488        -0.522711
 H         2.282145        -1.083154        -1.845157
 H         2.969684         0.412524        -1.918827
 H         2.757526        -2.671676         0.134519
 H         2.987431        -1.866771         1.738679
 H         4.412324         2.031491         1.315206
 H         4.044835         2.027771        -0.589863
 H         2.538025         0.612659         1.845476
