19
Iteration:  1716
 C         0.245840         1.015707        -0.196154
 C         1.493641         0.200966        -0.109568
 C         2.473543        -0.149153        -1.209365
 C         3.384634        -0.421815         0.067539
 C         2.656012        -1.634881         0.554236
 O         1.329492        -1.099817         0.532478
 O         4.650743         0.167630         0.116797
 C         3.969244         1.496340         0.525201
 C         2.637321         0.745581         0.843347
 H        -0.268059         1.119868         0.752775
 H         0.680739         1.996005        -0.468741
 H        -0.495652         0.590247        -0.882094
 H         2.137387        -1.034950        -1.770048
 H         2.940599         0.657217        -1.761231
 H         2.643711        -2.527888        -0.080423
 H         3.167758        -2.045735         1.387658
 H         4.278324         2.070364         1.396881
 H         3.786055         2.074489        -0.420903
 H         2.410857         0.492538         1.852377
