19
Iteration:  3563charge 0 multiplicity 1
 C         0.040847         0.808558        -0.210262
 C         1.517862         0.399610        -0.075727
 C         2.466180         0.002713        -1.150738
 C         3.333855        -0.452437         0.035785
 C         2.686029        -1.660980         0.633548
 O         1.313315        -0.964898         0.503268
 O         4.697706         0.016310         0.059038
 C         4.139603         1.440252         0.458428
 C         2.691949         0.763518         0.887839
 H        -0.523136         0.701635         0.725446
 H        -0.101781         1.873471        -0.592692
 H        -0.451176         0.031928        -0.828507
 H         1.849703        -0.674017        -1.801231
 H         2.835573         0.789519        -1.832723
 H         2.558889        -2.552660         0.046244
 H         3.005761        -1.897430         1.669346
 H         4.635780         2.046439         1.300707
 H         4.152003         2.077715        -0.602557
 H         2.639689         0.678134         2.067771
