19
Iteration:  1062
 C         0.053198         0.865892        -0.311378
 C         1.431799         0.293460        -0.073134
 C         2.521022        -0.072600        -1.158089
 C         3.362157        -0.379658         0.022499
 C         2.646264        -1.627878         0.523841
 O         1.399352        -1.128272         0.622640
 O         4.688924         0.079900         0.055808
 C         4.034023         1.456049         0.554786
 C         2.691044         0.840374         0.879683
 H        -0.561268         0.719631         0.625028
 H         0.143022         1.942470        -0.446872
 H        -0.489701         0.486605        -1.193253
 H         2.059144        -0.717825        -1.905736
 H         2.942999         0.881932        -1.631059
 H         2.875316        -2.483992        -0.259949
 H         3.165913        -2.033265         1.508427
 H         4.562944         1.692267         1.526215
 H         3.993616         2.448299        -0.154420
 H         2.313356         0.835900         1.916016
