19
Iteration:  2095
 C         0.007272         0.839024        -0.200672
 C         1.433864         0.359485        -0.093080
 C         2.389985        -0.087085        -1.158864
 C         3.379584        -0.370380         0.042275
 C         2.738889        -1.608354         0.525389
 O         1.300534        -1.005637         0.527923
 O         4.731089         0.096182         0.141355
 C         4.127352         1.387163         0.537327
 C         2.708400         0.761475         0.781706
 H        -0.646560         0.572830         0.607180
 H        -0.042421         1.905174        -0.378196
 H        -0.445169         0.297317        -1.078744
 H         2.297465        -0.935285        -1.769535
 H         3.048368         0.598137        -1.809502
 H         2.616178        -2.534254        -0.036890
 H         3.014835        -1.705292         1.617936
 H         4.790946         1.848466         1.422634
 H         4.178372         2.229608        -0.223074
 H         2.546376         0.414049         1.827320
