19
Iteration:  3604
 C         0.216805         1.009627        -0.173720
 C         1.482142         0.185101        -0.017180
 C         2.444793        -0.040509        -1.208847
 C         3.402770        -0.407563         0.037316
 C         2.704312        -1.735466         0.563373
 O         1.239853        -1.079051         0.652254
 O         4.639205         0.116378         0.131304
 C         4.014261         1.527076         0.417303
 C         2.688673         0.708507         0.736863
 H        -0.366042         1.022083         0.749263
 H         0.730612         1.965418        -0.514691
 H        -0.476022         0.891329        -1.049654
 H         2.366930        -0.900099        -2.009287
 H         2.733491         0.892060        -1.792959
 H         2.696938        -2.567793        -0.145592
 H         2.937566        -2.048319         1.563479
 H         4.719388         1.997220         1.086137
 H         3.986415         1.997426        -0.446819
 H         2.444070         0.697924         1.866285
