19
Iteration:  4846
 C         0.114183         1.042166        -0.059698
 C         1.479614         0.302233        -0.062376
 C         2.485997        -0.057875        -1.169187
 C         3.356828        -0.449125         0.048533
 C         2.673377        -1.656968         0.557420
 O         1.370897        -1.053315         0.518074
 O         4.638081         0.069474         0.051375
 C         4.068276         1.376125         0.447129
 C         2.637250         0.746885         0.798555
 H        -0.190887         1.115539         0.978140
 H         0.211136         1.901110        -0.694834
 H        -0.589826         0.382836        -0.551494
 H         2.414022        -0.814852        -1.976739
 H         2.791083         0.724597        -1.809156
 H         2.932888        -2.568665        -0.063477
 H         2.881118        -1.956959         1.606655
 H         4.533264         1.910631         1.276876
 H         4.026361         2.097114        -0.378936
 H         2.349091         0.816632         1.871778
