19
Iteration:  1391charge 0 multiplicity 1
 C         0.154487         0.922130        -0.133750
 C         1.519382         0.338722        -0.107200
 C         2.527243        -0.077684        -1.205000
 C         3.380725        -0.397991         0.048745
 C         2.699097        -1.629423         0.606041
 O         1.254916        -1.074505         0.439410
 O         4.675202         0.162176         0.170936
 C         3.997094         1.382665         0.416339
 C         2.694664         0.721094         0.885954
 H        -0.426760         0.771984         0.805133
 H         0.276802         1.984010        -0.565463
 H        -0.252488         0.233020        -0.927216
 H         2.006387        -0.901677        -1.857094
 H         2.735184         0.813545        -1.765477
 H         2.706463        -2.532798         0.007503
 H         2.887488        -1.764315         1.680227
 H         4.431164         1.938343         1.287889
 H         3.859216         1.933950        -0.469141
 H         2.513746         0.520249         2.000107
