19
Iteration:  4411
 C         0.143623         0.939679        -0.191181
 C         1.470687         0.262156        -0.024317
 C         2.513263        -0.036100        -1.229980
 C         3.342190        -0.447171         0.028753
 C         2.670780        -1.611282         0.637479
 O         1.283736        -1.047878         0.596290
 O         4.658352         0.075568         0.013778
 C         4.028958         1.452727         0.453174
 C         2.747563         0.739296         0.861558
 H        -0.509979         0.934535         0.717547
 H         0.288973         2.025896        -0.335358
 H        -0.267860         0.413397        -1.103076
 H         1.877089        -0.690465        -1.846617
 H         2.940634         0.863047        -1.830621
 H         2.578458        -2.527739        -0.083516
 H         2.998879        -2.056309         1.666785
 H         4.525531         2.036528         1.334153
 H         3.919685         2.150640        -0.506431
 H         2.858667         0.324702         1.897780
