19
Iteration:  2424
 C         0.175079         1.080737        -0.173566
 C         1.499318         0.264136        -0.036926
 C         2.594829        -0.124372        -1.222716
 C         3.332366        -0.501229         0.005472
 C         2.668745        -1.663021         0.681661
 O         1.303628        -1.111075         0.522351
 O         4.694093         0.174555         0.084579
 C         3.903190         1.438757         0.396058
 C         2.693408         0.692070         0.826845
 H        -0.402964         0.844934         0.764594
 H         0.419074         2.194327        -0.215259
 H        -0.458934         0.689991        -0.958767
 H         2.185320        -0.821986        -1.930693
 H         2.971977         0.765966        -1.750956
 H         2.567624        -2.650767         0.232353
 H         3.030473        -1.696566         1.728855
 H         4.553337         2.027212         1.175914
 H         3.639136         2.228646        -0.282425
 H         2.419281         0.661706         1.895822
