19
Iteration:  3488
 C         0.305529         1.102232        -0.169246
 C         1.528158         0.251495         0.029800
 C         2.403558        -0.101763        -1.194114
 C         3.366625        -0.487532         0.013529
 C         2.722770        -1.710336         0.511331
 O         1.276811        -1.108401         0.567892
 O         4.695405         0.114631         0.149018
 C         3.869633         1.568275         0.355087
 C         2.666873         0.683659         0.858816
 H        -0.224040         1.237390         0.747977
 H         0.632282         1.935374        -0.819252
 H        -0.493245         0.614243        -0.726962
 H         2.194169        -0.895093        -1.840302
 H         2.968225         0.558924        -1.841214
 H         2.693434        -2.657586        -0.096751
 H         2.927535        -1.843089         1.632493
 H         4.380719         1.984380         1.260455
 H         3.686357         2.250477        -0.526317
 H         2.608879         0.549728         1.977034
