19
Iteration:  1762charge 0 multiplicity 1
 C         0.111526         0.927733        -0.228470
 C         1.474152         0.208644        -0.104474
 C         2.548692         0.040552        -1.216141
 C         3.343484        -0.395497         0.043840
 C         2.643874        -1.615642         0.636701
 O         1.315425        -1.093072         0.528651
 O         4.718119         0.087443         0.112212
 C         3.965755         1.452306         0.422996
 C         2.683485         0.716815         0.897689
 H        -0.468800         0.752772         0.648529
 H         0.316164         2.023371        -0.325257
 H        -0.404671         0.478197        -1.007122
 H         2.377652        -0.750856        -1.879916
 H         2.806861         1.124715        -1.547130
 H         2.887004        -2.545023         0.125893
 H         2.653318        -1.986244         1.672807
 H         4.647526         1.768674         1.312191
 H         3.998868         2.149119        -0.509697
 H         2.685305         0.564120         1.924673
