19
Iteration:  4170charge 0 multiplicity 1
 C         0.101352         0.878724        -0.239451
 C         1.518883         0.385684        -0.059234
 C         2.386703        -0.018699        -1.197226
 C         3.346056        -0.389228         0.047524
 C         2.649817        -1.666153         0.535263
 O         1.211296        -1.129085         0.649898
 O         4.744398         0.076301         0.057157
 C         4.135558         1.470991         0.500266
 C         2.754368         0.785025         0.810096
 H        -0.299227         1.108718         0.746677
 H         0.076499         1.805081        -0.805459
 H        -0.602893         0.199004        -0.704607
 H         2.111459        -0.872362        -1.856885
 H         2.840614         0.667520        -1.892170
 H         2.535655        -2.701936         0.027011
 H         3.184785        -1.916686         1.556359
 H         4.450933         1.849646         1.468564
 H         4.231137         2.177454        -0.381705
 H         2.754992         0.683095         1.860731
