19
Iteration:  4922charge 0 multiplicity 1
 C         0.203910         0.973656        -0.157407
 C         1.453597         0.340593        -0.062273
 C         2.429644        -0.045439        -1.143073
 C         3.351037        -0.399117         0.066490
 C         2.595211        -1.734512         0.555211
 O         1.342317        -1.106215         0.597574
 O         4.679517         0.135101         0.032504
 C         4.066825         1.404431         0.419936
 C         2.642370         0.742587         0.830678
 H        -0.276769         0.902239         0.847474
 H         0.457702         2.056719        -0.269271
 H        -0.272651         0.549971        -1.125783
 H         2.096235        -0.877555        -1.890101
 H         2.840425         0.692410        -1.804391
 H         2.591253        -2.511686        -0.243214
 H         3.048429        -1.919660         1.526911
 H         4.584932         1.838270         1.285062
 H         4.252802         2.138968        -0.350782
 H         2.700850         0.789423         1.926030
