19
Iteration:  1148charge 0 multiplicity 1
 C         0.203248         0.956677        -0.139517
 C         1.528178         0.261096        -0.097590
 C         2.524536        -0.096706        -1.227178
 C         3.265525        -0.403366         0.063530
 C         2.745283        -1.757613         0.526497
 O         1.299822        -1.127764         0.513522
 O         4.681987         0.161081         0.202510
 C         3.984083         1.488124         0.474169
 C         2.618219         0.812211         0.770921
 H         0.155128         1.283839         0.921294
 H         0.261977         1.863752        -0.724369
 H        -0.574519         0.334907        -0.573439
 H         2.232064        -0.969868        -1.851115
 H         2.525994         0.969084        -1.647641
 H         2.962634        -2.547690        -0.116572
 H         2.800870        -2.156948         1.561774
 H         4.347170         2.097984         1.224429
 H         4.053247         2.196574        -0.408784
 H         2.386869         0.776618         1.805086
