19
Iteration:  3373charge 0 multiplicity 1
 C         0.171527         0.934424        -0.213435
 C         1.567290         0.355294        -0.018715
 C         2.439749        -0.008591        -1.183036
 C         3.403422        -0.434697         0.118311
 C         2.634107        -1.727792         0.550591
 O         1.304958        -1.101290         0.531680
 O         4.663671         0.082035         0.045145
 C         3.998504         1.445296         0.451437
 C         2.711184         0.833220         0.914652
 H        -0.306273         1.031986         0.759568
 H         0.178230         1.832208        -0.765124
 H        -0.487059         0.187576        -0.600127
 H         2.088597        -0.882868        -1.776788
 H         2.760790         0.706917        -1.995380
 H         2.669071        -2.467764        -0.219109
 H         2.819727        -2.148550         1.485096
 H         4.545582         2.028958         1.168108
 H         3.866120         1.953603        -0.594589
 H         2.550088         0.811399         1.971920
