19
Iteration:   244
 C         0.228865         1.001069        -0.080590
 C         1.483004         0.178368        -0.025534
 C         2.540043        -0.031653        -1.158080
 C         3.370057        -0.347031         0.150263
 C         2.693106        -1.732943         0.505681
 O         1.321530        -1.226002         0.425760
 O         4.607899         0.165013         0.124158
 C         3.962698         1.491630         0.380063
 C         2.597328         0.827074         0.846430
 H        -0.181924         0.977822         0.923154
 H         0.393842         2.065505        -0.378561
 H        -0.519018         0.595482        -0.782308
 H         2.510353        -0.860267        -1.907690
 H         2.903216         0.808913        -1.792708
 H         2.813896        -2.496647        -0.213955
 H         2.845467        -2.089277         1.482377
 H         4.592577         2.070123         1.206510
 H         3.982680         2.087536        -0.544913
 H         2.569952         0.683509         1.887497
