19
Iteration:  2560charge 0 multiplicity 1
 C         0.199910         0.984519        -0.219370
 C         1.452623         0.295870        -0.054564
 C         2.468518        -0.111123        -1.218660
 C         3.403273        -0.439445         0.056245
 C         2.693743        -1.622017         0.566480
 O         1.329705        -1.077735         0.658597
 O         4.674261         0.145220         0.104877
 C         3.970801         1.395962         0.450137
 C         2.663532         0.705200         0.744995
 H        -0.327709         1.366809         0.686898
 H         0.357448         1.983471        -0.649625
 H        -0.622285         0.472802        -0.850895
 H         2.232807        -0.940078        -1.962947
 H         2.833310         0.781165        -1.636703
 H         2.550309        -2.574172         0.015298
 H         2.956999        -1.852286         1.609509
 H         4.357446         1.862756         1.282243
 H         4.092550         2.108450        -0.344226
 H         2.567520         0.710146         1.831041
