19
Iteration:  2451
 C         0.269354         1.102017        -0.153266
 C         1.510048         0.249653        -0.063889
 C         2.366586        -0.212798        -1.234849
 C         3.368569        -0.435750         0.146132
 C         2.666651        -1.672468         0.584403
 O         1.332291        -1.128493         0.500086
 O         4.722426         0.178872         0.230175
 C         3.972417         1.500473         0.356156
 C         2.677258         0.730539         0.748824
 H        -0.172150         0.801130         0.815962
 H         0.417238         2.159871        -0.207795
 H        -0.454680         0.700719        -0.929015
 H         1.891058        -1.021234        -1.862433
 H         2.528955         0.655113        -1.892194
 H         2.684727        -2.546041        -0.129176
 H         2.868947        -2.098962         1.582290
 H         4.406042         2.007376         1.140100
 H         3.795491         2.156905        -0.525132
 H         2.483566         0.747722         1.821107
