19
Iteration:  2136
 C         0.183423         1.017312        -0.218868
 C         1.454057         0.258082        -0.028517
 C         2.561159        -0.043085        -1.137768
 C         3.320688        -0.438898         0.080848
 C         2.702829        -1.686984         0.582374
 O         1.307178        -1.113273         0.542413
 O         4.688893         0.175482         0.074730
 C         3.946708         1.401633         0.445146
 C         2.687029         0.703642         0.820345
 H        -0.409106         1.262873         0.723132
 H         0.509395         1.926489        -0.693724
 H        -0.550843         0.365171        -0.864638
 H         2.233297        -0.701766        -1.933173
 H         2.782836         0.985435        -1.633654
 H         2.836007        -2.530788        -0.131281
 H         2.925458        -2.059498         1.649907
 H         4.437205         2.054968         1.151361
 H         3.775979         2.034847        -0.426520
 H         2.541855         0.632485         1.860736
