19
Iteration:  4511
 C         0.216791         1.077766        -0.134412
 C         1.495474         0.293267         0.000607
 C         2.480516        -0.113429        -1.145319
 C         3.382495        -0.462428         0.000003
 C         2.719580        -1.694736         0.589442
 O         1.286674        -1.136276         0.497256
 O         4.676679         0.171792         0.063709
 C         3.953078         1.413624         0.425458
 C         2.623257         0.760487         0.816621
 H        -0.002966         1.359071         0.951854
 H         0.434937         2.069650        -0.657182
 H        -0.675238         0.577274        -0.530334
 H         2.168962        -0.984339        -1.805023
 H         2.796212         0.753166        -1.656087
 H         2.944582        -2.596559        -0.076762
 H         2.886370        -2.035550         1.670715
 H         4.506436         1.864362         1.252082
 H         3.943597         1.947037        -0.573282
 H         2.416224         0.690910         1.912556
