19
Iteration:   985
 C         0.218839         0.985779        -0.116927
 C         1.453130         0.263236        -0.110780
 C         2.494847        -0.114057        -1.184607
 C         3.385660        -0.419674         0.087467
 C         2.664573        -1.707641         0.522837
 O         1.339931        -1.206032         0.432563
 O         4.626753         0.169259         0.143053
 C         3.977676         1.557442         0.502711
 C         2.648831         0.786485         0.848116
 H         0.026241         1.429155         0.951369
 H         0.299336         1.812817        -0.803738
 H        -0.640302         0.388435        -0.476046
 H         2.359215        -0.974097        -1.913327
 H         2.900985         0.756375        -1.720515
 H         2.867491        -2.711270        -0.071348
 H         2.996796        -1.839587         1.654812
 H         4.475709         2.094675         1.278095
 H         4.047330         2.197927        -0.479117
 H         2.362769         0.720258         1.878452
