19
Iteration:   599
 C         0.053389         0.815049        -0.159682
 C         1.513258         0.316834        -0.074402
 C         2.488254         0.049748        -1.224165
 C         3.361972        -0.384785         0.025913
 C         2.703757        -1.679138         0.522422
 O         1.342629        -1.110723         0.507011
 O         4.744343         0.072808         0.203929
 C         3.987770         1.488853         0.466799
 C         2.615235         0.792763         0.882913
 H        -0.533224         0.995211         0.757154
 H         0.085549         1.827090        -0.771243
 H        -0.474114         0.132508        -0.941192
 H         2.359871        -0.781056        -2.011086
 H         2.844922         0.935608        -1.789968
 H         2.619927        -2.553726        -0.113424
 H         3.081539        -1.965973         1.526186
 H         4.538129         1.811732         1.342607
 H         4.272111         2.139309        -0.439205
 H         2.420458         0.783084         1.889851
