19
Iteration:  1427charge 0 multiplicity 1
 C         0.251971         1.026666        -0.160530
 C         1.479192         0.191573        -0.087539
 C         2.486922        -0.132410        -1.271721
 C         3.407824        -0.384242         0.117890
 C         2.708800        -1.691862         0.566038
 O         1.236746        -1.166204         0.545552
 O         4.677669         0.210014         0.171847
 C         4.000279         1.444496         0.453857
 C         2.587524         0.764004         0.761430
 H        -0.327849         1.044178         0.746647
 H         0.441251         2.127400        -0.252935
 H        -0.395547         0.813535        -0.998309
 H         2.330784        -0.917378        -1.985802
 H         2.709184         0.850122        -1.677916
 H         2.678750        -2.557274        -0.167325
 H         3.044368        -1.953182         1.563691
 H         4.603752         1.902252         1.289530
 H         3.977480         2.229664        -0.364059
 H         2.522244         0.645223         1.913060
