19
Iteration:  3714charge 0 multiplicity 1
 C         0.109041         0.802690        -0.225360
 C         1.505528         0.313822         0.008789
 C         2.400428        -0.013916        -1.239375
 C         3.347595        -0.364811         0.016926
 C         2.570799        -1.701436         0.486005
 O         1.248755        -0.970272         0.621402
 O         4.781939         0.092182         0.140823
 C         4.128026         1.392247         0.467414
 C         2.749669         0.802267         0.845627
 H        -0.396913         0.716462         0.770555
 H        -0.072274         1.850803        -0.667739
 H        -0.399348         0.059770        -0.892087
 H         2.140004        -0.947213        -1.881039
 H         2.648669         0.927001        -1.849633
 H         2.502488        -2.589509        -0.183770
 H         3.039407        -1.963880         1.455907
 H         4.687356         1.855193         1.322157
 H         4.351736         2.117972        -0.471229
 H         2.565294         0.767626         1.983069
