19
Iteration:  1043
 C         0.115649         0.839684        -0.242420
 C         1.451143         0.252344        -0.070258
 C         2.431464         0.008784        -1.218399
 C         3.358576        -0.419446         0.061382
 C         2.728898        -1.667196         0.551953
 O         1.283798        -1.020366         0.566320
 O         4.693351         0.212442         0.148052
 C         4.097774         1.411033         0.515520
 C         2.674778         0.738333         0.804072
 H        -0.458607         0.636106         0.693642
 H         0.158220         1.963754        -0.652728
 H        -0.348335         0.061402        -0.971173
 H         2.227381        -0.828235        -1.873563
 H         2.753466         0.878939        -1.866887
 H         2.591692        -2.546323        -0.183539
 H         3.018242        -2.067307         1.561341
 H         4.574479         1.849172         1.506172
 H         4.179097         2.118254        -0.324877
 H         2.658350         0.416940         1.959009
