19
Iteration:   447charge 0 multiplicity 1
 C         0.071516         0.841004        -0.250355
 C         1.461754         0.255769        -0.064670
 C         2.498951         0.080949        -1.205321
 C         3.359879        -0.428517         0.033635
 C         2.744323        -1.735182         0.570641
 O         1.295186        -1.050773         0.538178
 O         4.753855         0.174104         0.069943
 C         3.977944         1.401859         0.536726
 C         2.653230         0.775233         0.878380
 H        -0.334215         1.192267         0.617241
 H         0.132474         1.706917        -0.957418
 H        -0.648805         0.102512        -0.609843
 H         2.441759        -0.693217        -2.078267
 H         2.979626         1.019405        -1.352431
 H         2.612866        -2.658192         0.036216
 H         3.070384        -1.985449         1.591852
 H         4.464767         1.753178         1.384729
 H         3.975999         2.243789        -0.209586
 H         2.598548         0.564093         1.953389
