19
Iteration:  1847charge 0 multiplicity 1
 C         0.212057         0.987460        -0.197958
 C         1.474890         0.285602        -0.028824
 C         2.531647         0.023519        -1.220532
 C         3.349320        -0.453301         0.025092
 C         2.700703        -1.694938         0.650301
 O         1.277553        -1.176795         0.510178
 O         4.677946         0.130008         0.082507
 C         3.973577         1.479758         0.466653
 C         2.634790         0.663181         0.852078
 H        -0.107756         1.466027         0.777215
 H         0.384585         1.939414        -0.903516
 H        -0.665436         0.437167        -0.691706
 H         2.340061        -0.674342        -2.026879
 H         3.054484         1.004914        -1.638218
 H         3.134031        -2.486835        -0.047516
 H         2.800453        -1.869428         1.732967
 H         4.358499         1.908087         1.366168
 H         3.873159         2.132637        -0.416380
 H         2.302700         0.894417         1.899497
