19
Iteration:  3112charge 0 multiplicity 1
 C         0.040331         0.809544        -0.194911
 C         1.534868         0.355271        -0.098612
 C         2.446282        -0.001000        -1.219819
 C         3.426583        -0.443137         0.033603
 C         2.657103        -1.643819         0.599449
 O         1.268931        -0.950632         0.677520
 O         4.689709         0.087088         0.062334
 C         4.131992         1.375464         0.474272
 C         2.690747         0.734863         0.798057
 H        -0.465566         0.711372         0.798745
 H         0.151682         1.865013        -0.488533
 H        -0.461301         0.282878        -1.119757
 H         2.140608        -0.480117        -2.130451
 H         2.969177         0.903563        -1.686234
 H         2.450037        -2.501695        -0.060431
 H         3.002118        -2.150880         1.535655
 H         4.645184         1.660065         1.306928
 H         4.042927         1.982861        -0.447983
 H         2.343256         0.810723         1.851880
