19
Iteration:  3868charge 0 multiplicity 1
 C         0.070961         0.862412        -0.220378
 C         1.488042         0.293106        -0.078069
 C         2.457643        -0.000997        -1.211718
 C         3.276028        -0.425817        -0.050987
 C         2.693607        -1.637181         0.564945
 O         1.291310        -1.039780         0.635613
 O         4.643921         0.052382         0.059657
 C         4.202318         1.368787         0.536750
 C         2.714920         0.852937         0.864242
 H        -0.468914         1.114629         0.660948
 H         0.265645         1.840019        -0.620163
 H        -0.556067         0.237418        -0.800660
 H         2.251774        -0.754287        -2.031521
 H         3.005605         0.825615        -1.688800
 H         2.664981        -2.657802         0.059550
 H         3.124083        -1.813718         1.580788
 H         4.694567         1.865944         1.379387
 H         4.138528         2.108890        -0.359780
 H         2.360075         0.780921         1.935879
