19
Iteration:  3763
 C         0.279311         1.082703        -0.133457
 C         1.539962         0.261251        -0.038070
 C         2.405809        -0.088947        -1.237130
 C         3.398579        -0.470016        -0.009603
 C         2.713445        -1.618888         0.676551
 O         1.283688        -1.133960         0.503353
 O         4.682639         0.135139         0.084487
 C         3.898898         1.419077         0.447649
 C         2.648276         0.717492         0.861674
 H        -0.422894         1.062206         0.743329
 H         0.578750         2.062607        -0.503606
 H        -0.297949         0.826627        -1.058897
 H         1.863044        -0.799452        -1.786248
 H         2.861961         0.624136        -1.868875
 H         2.855701        -2.436117         0.004817
 H         3.019470        -1.851336         1.710145
 H         4.602351         1.850069         1.138302
 H         3.747132         2.006350        -0.365165
 H         2.408378         0.509844         1.866830
