19
Iteration:   889charge 0 multiplicity 1
 C         0.038036         0.818300        -0.180469
 C         1.426340         0.304032        -0.110853
 C         2.514590         0.003577        -1.254299
 C         3.360087        -0.396381         0.072811
 C         2.669744        -1.618650         0.559386
 O         1.289398        -1.073942         0.496862
 O         4.724415         0.196658         0.199386
 C         4.078635         1.396388         0.459186
 C         2.771753         0.693815         0.880946
 H        -0.623739         0.385315         0.676510
 H         0.038378         1.909194        -0.258073
 H        -0.436542         0.285631        -1.050104
 H         2.104181        -0.683763        -2.038620
 H         3.019317         0.822561        -1.734981
 H         2.710930        -2.468798        -0.093778
 H         2.954601        -1.757530         1.552840
 H         4.584585         2.060751         1.272144
 H         3.959644         2.036990        -0.456875
 H         2.449872         0.545969         1.969821
