19
Iteration:  1214
 C         0.127995         0.875901        -0.261999
 C         1.461681         0.249622        -0.092963
 C         2.491161         0.003121        -1.123187
 C         3.325429        -0.375776         0.093151
 C         2.612013        -1.671809         0.558050
 O         1.349139        -1.107946         0.560305
 O         4.653877         0.116165         0.049239
 C         4.063328         1.422702         0.524478
 C         2.707400         0.852515         0.846696
 H        -0.568562         0.830833         0.683396
 H         0.183419         1.870213        -0.735468
 H        -0.329474         0.156549        -1.057714
 H         2.302160        -0.809366        -1.877329
 H         2.857065         0.965702        -1.719193
 H         2.818988        -2.508274        -0.087095
 H         3.119178        -2.027334         1.510279
 H         4.639132         1.715553         1.366769
 H         4.152844         2.311657        -0.164541
 H         2.594140         0.598925         1.895698
