19
Iteration:  1841
 C         0.213768         0.959695        -0.218204
 C         1.518544         0.265474        -0.016877
 C         2.544560         0.047974        -1.232435
 C         3.313055        -0.416455         0.049135
 C         2.660629        -1.682719         0.612597
 O         1.298759        -1.161542         0.529821
 O         4.647272         0.128806         0.096254
 C         3.965669         1.441631         0.479056
 C         2.659009         0.671063         0.814302
 H        -0.118466         1.312793         0.733397
 H         0.392110         1.740826        -0.849212
 H        -0.621000         0.420500        -0.534630
 H         2.461531        -0.673300        -2.072208
 H         2.841234         0.935546        -1.670287
 H         2.806544        -2.591046         0.012990
 H         2.940657        -1.766773         1.672139
 H         4.392757         2.081769         1.373910
 H         4.045657         2.240073        -0.298088
 H         2.504906         0.883667         1.859465
