19
Iteration:  3725charge 0 multiplicity 1
 C         0.100009         0.846511        -0.213417
 C         1.489778         0.356008        -0.033094
 C         2.469382        -0.023277        -1.225745
 C         3.400622        -0.424638         0.075082
 C         2.598355        -1.631022         0.573827
 O         1.234762        -1.103060         0.622318
 O         4.730651         0.084230         0.049817
 C         4.154986         1.437946         0.471081
 C         2.710320         0.803338         0.841411
 H        -0.468569         0.800320         0.752703
 H         0.201549         1.958611        -0.551351
 H        -0.428425         0.248317        -0.989157
 H         2.070920        -0.731639        -2.068557
 H         2.816408         0.952532        -1.756100
 H         2.587004        -2.361151        -0.281846
 H         2.630390        -2.193201         1.522569
 H         4.549712         1.927726         1.403417
 H         4.134055         2.108585        -0.551875
 H         2.670640         0.721344         1.997819
