19
Iteration:   613charge 0 multiplicity 1
 C         0.010103         0.808490        -0.205919
 C         1.432303         0.366835        -0.075999
 C         2.519235        -0.005526        -1.139100
 C         3.375310        -0.359025         0.100139
 C         2.720084        -1.641195         0.489338
 O         1.290489        -1.116479         0.428175
 O         4.700068         0.138001         0.167488
 C         4.162965         1.410124         0.505119
 C         2.642956         0.768321         0.846484
 H        -0.228188         0.949190         0.858380
 H        -0.226249         1.696228        -0.763242
 H        -0.574143        -0.040578        -0.490811
 H         2.124141        -0.856937        -1.641488
 H         3.079794         0.727237        -1.811388
 H         3.004812        -2.446059        -0.167673
 H         2.849393        -1.860927         1.538645
 H         4.619627         2.014089         1.285161
 H         3.975205         2.091641        -0.446370
 H         2.461028         0.717743         1.961887
