19
Iteration:  1177
 C         0.047861         0.898488        -0.252686
 C         1.469197         0.298859        -0.027664
 C         2.486479        -0.048690        -1.199419
 C         3.334191        -0.433130        -0.006940
 C         2.674296        -1.632818         0.594109
 O         1.370595        -1.060606         0.503866
 O         4.746874         0.140630         0.145586
 C         3.989251         1.453264         0.531308
 C         2.740641         0.688055         0.842309
 H        -0.405649         1.370832         0.710318
 H         0.135092         1.791906        -0.956564
 H        -0.756225         0.241244        -0.710648
 H         2.160654        -0.842277        -1.907178
 H         2.645938         0.908291        -1.684895
 H         2.839989        -2.545310        -0.080960
 H         2.807378        -1.856139         1.642770
 H         4.447700         2.047824         1.391843
 H         3.937610         2.070559        -0.346005
 H         2.700765         0.353588         1.875864
