19
Iteration:  1159
 C         0.200192         0.962857        -0.163450
 C         1.463993         0.232215        -0.114458
 C         2.449040        -0.034902        -1.232656
 C         3.412235        -0.420242         0.075104
 C         2.724706        -1.679903         0.521195
 O         1.255813        -1.140346         0.536979
 O         4.681562         0.205176         0.215493
 C         4.038655         1.464631         0.462241
 C         2.630210         0.732319         0.813885
 H        -0.284651         1.269746         0.785710
 H         0.160196         1.774291        -0.863872
 H        -0.573492         0.234787        -0.460830
 H         2.184402        -0.902429        -1.883965
 H         2.937605         0.725654        -1.975232
 H         2.683242        -2.482413        -0.138693
 H         3.154241        -1.861322         1.540066
 H         4.538647         1.786300         1.306805
 H         4.066983         2.118837        -0.449905
 H         2.394264         0.725660         1.859050
