19
Iteration:  4934charge 0 multiplicity 1
 C         0.166139         1.038839        -0.157131
 C         1.531906         0.241000        -0.006377
 C         2.416527        -0.058126        -1.195928
 C         3.398248        -0.497107         0.005249
 C         2.642611        -1.669800         0.594007
 O         1.265764        -1.083189         0.556596
 O         4.713659         0.172769         0.072834
 C         4.027929         1.456510         0.419442
 C         2.749507         0.696850         0.805020
 H        -0.403322         0.944546         0.795744
 H         0.380086         2.109230        -0.392166
 H        -0.642304         0.744499        -0.824418
 H         1.939729        -0.872379        -1.799290
 H         2.763630         0.797516        -1.755978
 H         2.668967        -2.608607        -0.004187
 H         2.743200        -2.086436         1.588742
 H         4.454464         1.886047         1.345977
 H         4.007269         2.140121        -0.383977
 H         2.517404         0.523332         1.881344
