19
Iteration:  2068
 C         0.083696         0.821480        -0.186672
 C         1.521862         0.308596        -0.090527
 C         2.440284        -0.007129        -1.272651
 C         3.341297        -0.375306         0.088325
 C         2.617029        -1.646637         0.590227
 O         1.332394        -1.076605         0.549791
 O         4.696615         0.122552         0.123579
 C         4.114717         1.392865         0.534833
 C         2.703584         0.831561         0.775487
 H        -0.565542         0.618880         0.713543
 H         0.134400         1.936088        -0.351574
 H        -0.468631         0.345579        -1.002158
 H         2.271694        -0.861037        -2.002189
 H         2.841214         0.839870        -1.778985
 H         2.601911        -2.602449         0.007101
 H         2.918719        -1.867927         1.613453
 H         4.644886         1.768550         1.306075
 H         4.077987         2.123739        -0.243376
 H         2.500890         0.571851         1.793409
