19
Iteration:  4338charge 0 multiplicity 1
 C         0.152963         0.953667        -0.124090
 C         1.517895         0.332630        -0.018066
 C         2.406156        -0.064411        -1.205465
 C         3.389896        -0.402885        -0.001229
 C         2.673181        -1.673107         0.607113
 O         1.302370        -1.068687         0.568877
 O         4.743263         0.084833         0.135286
 C         3.969264         1.407928         0.371871
 C         2.682313         0.735786         0.747005
 H        -0.158974         1.299122         0.882351
 H         0.208511         1.933779        -0.636277
 H        -0.507325         0.244973        -0.552500
 H         2.228513        -0.844030        -2.007266
 H         2.929071         0.772595        -1.780608
 H         2.648519        -2.450664        -0.142352
 H         2.783490        -1.815312         1.695108
 H         4.396301         1.835513         1.289557
 H         3.967606         2.212184        -0.332183
 H         2.564989         0.584892         1.888107
