19
Iteration:  2506charge 0 multiplicity 1
 C         0.068978         0.766157        -0.273291
 C         1.476074         0.357533         0.035236
 C         2.467140        -0.001458        -1.213856
 C         3.352362        -0.420015         0.047292
 C         2.627416        -1.641300         0.638677
 O         1.283004        -0.986922         0.525088
 O         4.755547         0.075233         0.036845
 C         4.141201         1.414718         0.521090
 C         2.724214         0.779548         0.813033
 H        -0.360457         1.208799         0.676856
 H         0.052856         1.617867        -0.994052
 H        -0.579194        -0.112908        -0.617525
 H         1.929739        -0.792007        -1.883474
 H         2.810560         0.857258        -1.745626
 H         2.337842        -2.658614         0.204334
 H         2.889321        -1.642881         1.731496
 H         4.601973         1.801759         1.343685
 H         4.054181         2.124158        -0.328390
 H         2.653205         0.634339         1.897796
