19
Iteration:  1529charge 0 multiplicity 1
 C         0.098604         0.954173        -0.190175
 C         1.511990         0.356261        -0.100566
 C         2.458920        -0.077548        -1.270117
 C         3.377593        -0.435847        -0.031092
 C         2.692116        -1.674166         0.589661
 O         1.369088        -1.077326         0.532519
 O         4.686852         0.087603         0.216357
 C         4.001518         1.499557         0.523609
 C         2.684667         0.744134         0.811227
 H        -0.446538         1.002485         0.756230
 H        -0.116716         1.845238        -0.707293
 H        -0.494594         0.145419        -0.640098
 H         2.127574        -0.942671        -1.928422
 H         2.871706         0.760400        -1.815689
 H         2.762773        -2.607881        -0.101674
 H         2.801197        -2.127162         1.631642
 H         4.418152         1.885087         1.424936
 H         3.990611         2.225716        -0.403870
 H         2.580873         0.762547         1.909782
