19
Iteration:  3069
 C         0.124330         1.081134        -0.259218
 C         1.461877         0.279146        -0.051873
 C         2.385816        -0.105838        -1.127957
 C         3.314165        -0.479634         0.040643
 C         2.722796        -1.663105         0.668984
 O         1.338035        -1.131252         0.502830
 O         4.704484         0.129075         0.012611
 C         4.123581         1.421776         0.476252
 C         2.637164         0.809706         0.878729
 H        -0.267946         1.089875         0.786552
 H         0.312274         2.089337        -0.572637
 H        -0.530900         0.339342        -0.822527
 H         1.987764        -0.776194        -1.844106
 H         2.750999         0.745277        -1.770521
 H         2.904801        -2.501036         0.059383
 H         3.016722        -2.045888         1.639597
 H         4.663418         1.731364         1.344952
 H         3.998483         2.066307        -0.455205
 H         2.535916         0.687078         1.973877
