19
Iteration:  3899charge 0 multiplicity 1
 C         0.154177         1.005210        -0.183186
 C         1.484320         0.306718        -0.068392
 C         2.440747        -0.140266        -1.164884
 C         3.396713        -0.485074         0.012667
 C         2.621817        -1.696931         0.582347
 O         1.279760        -1.045719         0.565747
 O         4.751455         0.150567         0.037241
 C         3.991537         1.450748         0.508749
 C         2.739500         0.741721         0.838775
 H        -0.326954         1.044218         0.810214
 H         0.466991         2.070855        -0.448786
 H        -0.569200         0.601279        -0.971708
 H         1.997642        -1.057833        -1.710608
 H         2.980996         0.634862        -1.765365
 H         2.633257        -2.551427        -0.213147
 H         2.930440        -1.972098         1.618893
 H         4.511188         1.994857         1.301028
 H         3.866778         2.144562        -0.383010
 H         2.355811         0.736523         1.897640
