19
Iteration:  3417charge 0 multiplicity 1
 C         0.022506         0.823670        -0.157793
 C         1.438734         0.317597        -0.099716
 C         2.413875         0.020063        -1.316266
 C         3.311990        -0.350397        -0.028380
 C         2.689623        -1.589051         0.573101
 O         1.312140        -1.048545         0.644977
 O         4.755163        -0.007298         0.160452
 C         4.158935         1.417636         0.524662
 C         2.728425         0.769374         0.797779
 H        -0.575382         0.645757         0.763436
 H         0.109266         1.841399        -0.456551
 H        -0.511237         0.362601        -1.013035
 H         2.060819        -0.784607        -2.037149
 H         2.675603         0.904962        -1.950902
 H         2.695901        -2.557150         0.121568
 H         3.116640        -1.613629         1.527922
 H         4.768220         1.709843         1.347010
 H         4.280630         2.141972        -0.418513
 H         2.424878         0.843200         1.810712
