19
Iteration:   566
 C         0.159819         0.964053        -0.230171
 C         1.451016         0.242967        -0.051253
 C         2.497823        -0.061194        -1.260126
 C         3.384403        -0.411540        -0.002714
 C         2.740444        -1.705555         0.524213
 O         1.282290        -1.147944         0.575909
 O         4.710084         0.221849         0.148869
 C         3.978135         1.508627         0.510798
 C         2.641482         0.670570         0.907469
 H        -0.527904         0.888858         0.637863
 H         0.484084         2.090599        -0.365080
 H        -0.395103         0.655355        -1.207492
 H         2.271980        -0.976991        -1.955812
 H         2.740342         0.898650        -1.733265
 H         2.558321        -2.599467        -0.045850
 H         3.187832        -1.898724         1.517014
 H         4.486958         1.972334         1.385470
 H         3.992749         2.352832        -0.374528
 H         2.374533         0.446066         1.867197
