19
Iteration:  4467charge 0 multiplicity 1
 C         0.148949         0.928918        -0.122578
 C         1.458892         0.327113        -0.051875
 C         2.443743        -0.049594        -1.156571
 C         3.377826        -0.405883         0.014666
 C         2.649293        -1.595882         0.543448
 O         1.308546        -1.023447         0.535138
 O         4.704413         0.080099         0.117384
 C         4.111644         1.383152         0.409038
 C         2.679749         0.749366         0.806698
 H        -0.376500         0.967051         0.860396
 H        -0.100556         1.699948        -0.870284
 H        -0.321779         0.022086        -0.540328
 H         2.088791        -0.941306        -1.745103
 H         2.624922         0.855677        -1.745944
 H         2.494608        -2.585606        -0.042771
 H         3.055295        -1.849354         1.607490
 H         4.480113         1.746637         1.394702
 H         4.040720         2.125897        -0.472139
 H         2.659151         0.522056         1.894876
