19
Iteration:  2648
 C         0.060397         0.877771        -0.271815
 C         1.505621         0.278021        -0.010762
 C         2.342450        -0.088905        -1.230898
 C         3.430471        -0.395561        -0.043923
 C         2.672758        -1.626767         0.629660
 O         1.271208        -0.975698         0.635330
 O         4.738750         0.085889         0.103978
 C         4.108593         1.460307         0.524313
 C         2.713071         0.730944         0.742294
 H        -0.356842         0.864531         0.736126
 H         0.186238         1.970342        -0.506373
 H        -0.425133         0.118158        -0.956231
 H         2.061732        -0.885889        -1.980951
 H         2.628174         0.867876        -1.704606
 H         2.578510        -2.525754         0.029526
 H         3.057101        -1.739709         1.620109
 H         4.510715         1.690762         1.453725
 H         4.256665         2.199008        -0.280703
 H         2.632979         0.361972         1.791479
