19
Iteration:  2892
 C         0.164955         1.093957        -0.098983
 C         1.506281         0.277121        -0.083788
 C         2.467117        -0.040558        -1.256759
 C         3.320569        -0.432313         0.139093
 C         2.677521        -1.715981         0.696878
 O         1.284970        -1.202139         0.476617
 O         4.713243         0.174584         0.103397
 C         4.020358         1.414097         0.357017
 C         2.712121         0.703438         0.818034
 H        -0.160475         1.307791         0.978353
 H         0.357168         2.002906        -0.676232
 H        -0.646572         0.531547        -0.649733
 H         2.217903        -0.812527        -2.023045
 H         2.765566         0.909924        -1.585250
 H         2.750565        -2.560405         0.034776
 H         2.938852        -1.920698         1.754047
 H         4.559167         2.146306         0.898910
 H         3.714336         2.071046        -0.654329
 H         2.396338         0.669835         1.881147
