19
Iteration:  4195
 C         0.173132         0.993887        -0.116210
 C         1.492082         0.256852        -0.071572
 C         2.401547        -0.090751        -1.215277
 C         3.376369        -0.434846         0.074563
 C         2.679286        -1.605892         0.582140
 O         1.368139        -1.064475         0.496171
 O         4.640741         0.124329         0.107943
 C         4.022587         1.371534         0.430253
 C         2.687387         0.733619         0.790775
 H        -0.252986         1.212241         0.971737
 H         0.267921         2.099302        -0.458281
 H        -0.617405         0.458803        -0.680353
 H         2.340436        -0.928370        -1.952559
 H         2.936552         0.712448        -1.808960
 H         2.575575        -2.703039         0.194315
 H         2.898669        -1.642989         1.747378
 H         4.442966         1.968926         1.207787
 H         3.878971         2.015423        -0.417036
 H         2.688145         0.663485         1.925803
