19
Iteration:   392
 C         0.193627         1.034572        -0.136536
 C         1.488897         0.223615        -0.125892
 C         2.438622        -0.122886        -1.207021
 C         3.408418        -0.382686         0.122297
 C         2.713090        -1.671983         0.500124
 O         1.393748        -1.200466         0.520621
 O         4.632621         0.216128         0.168760
 C         3.932940         1.510812         0.486909
 C         2.604366         0.728333         0.813987
 H        -0.354583         0.940839         0.740809
 H         0.498365         2.100465        -0.206095
 H        -0.462015         0.804169        -0.989621
 H         2.357669        -1.083086        -1.929114
 H         2.841971         0.543586        -1.963517
 H         2.789169        -2.489685        -0.262487
 H         2.935279        -2.105654         1.515568
 H         4.489474         1.904704         1.264879
 H         4.010876         2.087444        -0.457186
 H         2.399754         0.718449         1.911018
