19
Iteration:  2454
 C         0.261781         1.086834        -0.145189
 C         1.530571         0.208081        -0.066597
 C         2.369209        -0.200556        -1.223696
 C         3.350100        -0.458636         0.124231
 C         2.668799        -1.660982         0.565967
 O         1.332634        -1.125909         0.505286
 O         4.732240         0.163091         0.240333
 C         3.973720         1.509544         0.350944
 C         2.670651         0.772337         0.752585
 H        -0.184601         0.885772         0.783133
 H         0.340993         2.187140        -0.262191
 H        -0.422363         0.770302        -0.897545
 H         1.913201        -1.019141        -1.858707
 H         2.518206         0.633819        -1.846622
 H         2.681949        -2.470403        -0.109948
 H         2.877763        -2.115609         1.564492
 H         4.466356         1.963483         1.241429
 H         3.717916         2.151783        -0.575605
 H         2.450666         0.845054         1.832557
