19
Iteration:  3328charge 0 multiplicity 1
 C         0.299042         1.100741        -0.141502
 C         1.508960         0.202841        -0.145064
 C         2.422494        -0.107327        -1.232374
 C         3.313174        -0.402255        -0.021513
 C         2.650405        -1.688828         0.666320
 O         1.293835        -1.161858         0.588567
 O         4.773977         0.165377         0.123396
 C         3.909501         1.468580         0.407172
 C         2.629537         0.692199         0.794404
 H        -0.046090         1.197949         0.888696
 H         0.642170         2.018595        -0.498467
 H        -0.616473         0.690456        -0.489109
 H         2.172985        -0.764506        -2.076511
 H         2.742013         0.931868        -1.637019
 H         2.753558        -2.563300         0.073919
 H         2.980336        -1.794597         1.651575
 H         4.359691         1.869827         1.370001
 H         3.780333         2.344460        -0.321775
 H         2.637833         0.324629         1.810962
