19
Iteration:  4122charge 0 multiplicity 1
 C         0.095564         0.950494        -0.239438
 C         1.497640         0.309030        -0.032503
 C         2.421542        -0.042481        -1.143571
 C         3.361135        -0.381459        -0.009380
 C         2.615419        -1.614246         0.578236
 O         1.267114        -1.095878         0.604450
 O         4.730158         0.082083         0.084327
 C         4.095292         1.427587         0.444411
 C         2.774751         0.721987         0.860586
 H        -0.534818         1.084109         0.627266
 H         0.108660         1.880525        -0.824660
 H        -0.476882         0.222131        -0.808310
 H         2.194231        -0.708867        -1.928325
 H         2.612874         0.814550        -1.789953
 H         2.784994        -2.541789         0.014856
 H         2.959480        -1.922918         1.597474
 H         4.794391         1.862729         1.236308
 H         3.977553         2.005785        -0.501691
 H         2.577590         0.583212         1.957549
