19
Iteration:  2962
 C         0.081174         0.846197        -0.191917
 C         1.454922         0.337087        -0.045424
 C         2.445627        -0.032799        -1.176065
 C         3.382162        -0.442890        -0.002508
 C         2.666877        -1.619931         0.643803
 O         1.247530        -0.987404         0.611206
 O         4.738459         0.080555        -0.003790
 C         4.094082         1.356131         0.469843
 C         2.714115         0.779087         0.797194
 H        -0.620329         0.654328         0.599436
 H         0.041791         1.912384        -0.573805
 H        -0.286067         0.212734        -1.059938
 H         2.203356        -0.681434        -1.988409
 H         2.807381         1.009050        -1.439344
 H         2.825250        -2.546962         0.002967
 H         2.940019        -1.712995         1.735898
 H         4.507516         1.712472         1.493015
 H         4.344295         2.234955        -0.194578
 H         2.680697         0.551308         1.860814
