19
Iteration:  1670charge 0 multiplicity 1
 C         0.137117         0.851985        -0.256309
 C         1.465386         0.355907        -0.026369
 C         2.442532        -0.030485        -1.178141
 C         3.358374        -0.384555         0.045310
 C         2.660152        -1.629880         0.554589
 O         1.307949        -1.073187         0.462890
 O         4.689048         0.118922         0.186566
 C         4.083971         1.413420         0.458261
 C         2.716276         0.731587         0.851329
 H        -0.271532         1.171801         0.745959
 H         0.134230         1.702989        -0.890482
 H        -0.559354        -0.001465        -0.493723
 H         2.193922        -0.859469        -1.897722
 H         2.759295         0.820626        -1.637693
 H         2.965696        -2.574612         0.125303
 H         2.729616        -1.762070         1.557149
 H         4.660830         1.779019         1.225057
 H         3.914631         2.069685        -0.365621
 H         2.445727         0.737959         1.951710
