19
Iteration:  3265charge 0 multiplicity 1
 C         0.110847         0.781880        -0.227911
 C         1.488942         0.324913         0.055451
 C         2.471557         0.091769        -1.197462
 C         3.292623        -0.399653         0.036138
 C         2.619333        -1.706064         0.589509
 O         1.278754        -1.065578         0.564174
 O         4.687462         0.058522         0.118523
 C         4.147015         1.406139         0.337677
 C         2.722375         0.879086         0.859053
 H        -0.524893         0.662603         0.650853
 H         0.121796         1.865767        -0.519356
 H        -0.240033         0.026597        -1.028177
 H         2.228109        -0.688866        -1.907767
 H         2.797980         1.127277        -1.531556
 H         2.520321        -2.610733        -0.102178
 H         2.988445        -1.935674         1.647420
 H         4.669356         1.830729         1.103052
 H         4.304015         2.144913        -0.487829
 H         2.729024         0.664596         1.922717
