19
Iteration:  3553charge 0 multiplicity 1
 C         0.105109         0.780034        -0.194215
 C         1.503159         0.376163        -0.080702
 C         2.453116         0.000032        -1.192395
 C         3.328035        -0.402199         0.022825
 C         2.586100        -1.638437         0.623226
 O         1.298714        -0.983240         0.517736
 O         4.710246         0.085755         0.064376
 C         4.119929         1.384475         0.444485
 C         2.715597         0.747052         0.895029
 H        -0.105717         0.721278         0.872401
 H        -0.182892         1.739282        -0.687917
 H        -0.448101         0.037494        -0.764530
 H         2.139939        -0.747947        -1.926152
 H         3.034358         0.842697        -1.582143
 H         2.498716        -2.652106         0.179913
 H         2.927255        -1.679642         1.701105
 H         4.882911         1.735613         1.236052
 H         4.069001         2.229650        -0.521225
 H         2.596449         0.682048         2.052279
