19
Iteration:  3514charge 0 multiplicity 1
 C         0.146759         1.068294        -0.198678
 C         1.485105         0.262380        -0.106069
 C         2.364797        -0.105429        -1.185452
 C         3.356461        -0.448199         0.046732
 C         2.720753        -1.650394         0.534997
 O         1.357413        -1.120319         0.584477
 O         4.668875         0.142359         0.147808
 C         4.055901         1.398233         0.446740
 C         2.681825         0.757327         0.815407
 H        -0.186586         1.275594         0.866754
 H         0.379518         1.959917        -0.777638
 H        -0.798182         0.579643        -0.529843
 H         2.311298        -0.985914        -1.892849
 H         2.699903         0.714259        -1.867478
 H         2.838816        -2.571792        -0.097082
 H         2.930722        -1.804016         1.579514
 H         4.570224         1.800438         1.285400
 H         3.946349         2.100459        -0.277270
 H         2.438148         0.699028         1.847598
