19
Iteration:  3746charge 0 multiplicity 1
 C         0.152571         1.025203        -0.221807
 C         1.467212         0.299144        -0.013080
 C         2.497268        -0.049185        -1.130909
 C         3.306123        -0.443859         0.074990
 C         2.726579        -1.739384         0.597578
 O         1.333863        -1.058745         0.513008
 O         4.631206         0.129355         0.020510
 C         4.028706         1.386966         0.414480
 C         2.670139         0.735576         0.880662
 H        -0.295650         0.825741         0.742561
 H         0.335070         2.122501        -0.435285
 H        -0.506965         0.663318        -1.010212
 H         2.424588        -0.891350        -1.908184
 H         2.854568         0.899926        -1.658559
 H         2.657835        -2.801769         0.158858
 H         3.017685        -1.705397         1.662699
 H         4.524947         1.802040         1.339074
 H         4.098436         2.087543        -0.568936
 H         2.550619         0.801418         2.012162
