19
Iteration:  2562charge 0 multiplicity 1
 C         0.224778         0.973556        -0.209393
 C         1.478616         0.283147        -0.049276
 C         2.460664        -0.117517        -1.213261
 C         3.381268        -0.438357         0.062649
 C         2.679846        -1.609761         0.557109
 O         1.304777        -1.081460         0.650350
 O         4.689426         0.143824         0.113972
 C         3.959697         1.411904         0.452632
 C         2.679449         0.701989         0.731355
 H        -0.326931         1.309023         0.681884
 H         0.353167         2.045584        -0.657393
 H        -0.606617         0.549772        -0.826428
 H         2.187635        -0.940040        -1.975981
 H         2.865213         0.792107        -1.651723
 H         2.588572        -2.614117         0.007844
 H         3.035525        -1.866100         1.636736
 H         4.366213         1.967332         1.226939
 H         3.981611         2.121590        -0.395691
 H         2.566951         0.682904         1.842890
