19
Iteration:  2575charge 0 multiplicity 1
 C         0.257015         1.015272        -0.166062
 C         1.514725         0.214957        -0.082959
 C         2.446253        -0.117751        -1.209439
 C         3.343621        -0.439642        -0.004279
 C         2.618095        -1.696285         0.631772
 O         1.243177        -1.081572         0.567984
 O         4.719339         0.166908         0.171824
 C         3.958930         1.535340         0.353697
 C         2.716213         0.714276         0.854247
 H        -0.073913         0.932359         0.860057
 H         0.602478         2.074435        -0.527220
 H        -0.305665         0.446208        -0.867241
 H         2.071424        -0.948033        -1.837213
 H         2.768789         0.744084        -1.889472
 H         2.742138        -2.514157        -0.148748
 H         2.962154        -1.927221         1.728323
 H         4.525770         2.145925         1.141567
 H         3.799763         2.001555        -0.655301
 H         2.534175         0.475579         1.935288
