19
Iteration:  3947charge 0 multiplicity 1
 C         0.209450         1.091250        -0.120123
 C         1.491862         0.297693        -0.069508
 C         2.429199        -0.079393        -1.239685
 C         3.360966        -0.421021         0.137877
 C         2.715481        -1.750467         0.587801
 O         1.378236        -1.081996         0.501653
 O         4.693795         0.050173         0.127398
 C         4.005418         1.382410         0.335740
 C         2.567990         0.836617         0.837678
 H        -0.180731         1.007705         0.887987
 H         0.293988         2.064338        -0.512637
 H        -0.439758         0.600900        -0.745801
 H         2.117664        -0.868780        -1.835120
 H         2.786073         0.807312        -1.708303
 H         2.723110        -2.716612         0.047873
 H         2.911473        -1.835487         1.681266
 H         4.355411         1.905527         1.262676
 H         3.935771         2.064101        -0.570497
 H         2.273322         0.701314         1.884840
