19
Iteration:    73charge 0 multiplicity 1
 C         0.173682         0.900081        -0.141781
 C         1.519562         0.336072        -0.066533
 C         2.451282        -0.017253        -1.172032
 C         3.388200        -0.442990         0.056767
 C         2.684536        -1.642144         0.620235
 O         1.338644        -1.159068         0.428870
 O         4.658075         0.189061         0.080646
 C         4.002451         1.435567         0.450667
 C         2.651253         0.735652         0.869393
 H        -0.292403         0.736087         0.920791
 H         0.261671         1.945340        -0.408770
 H        -0.508964         0.417333        -0.874690
 H         2.166564        -0.756765        -1.950020
 H         2.814066         0.917952        -1.678595
 H         2.730671        -2.596406         0.030777
 H         2.824894        -1.973932         1.682728
 H         4.466915         1.950677         1.255548
 H         3.926818         2.132252        -0.461276
 H         2.501958         0.597461         2.022297
