19
Iteration:  4660
 C         0.219066         1.087274        -0.153625
 C         1.518911         0.295870        -0.071154
 C         2.366599        -0.104060        -1.193630
 C         3.376029        -0.441175         0.094479
 C         2.673134        -1.700169         0.547263
 O         1.317646        -1.135127         0.533352
 O         4.713034         0.171493         0.057134
 C         3.979784         1.437193         0.439002
 C         2.692010         0.659978         0.869315
 H        -0.052165         1.351647         0.900392
 H         0.228124         2.000604        -0.757118
 H        -0.671680         0.496611        -0.552862
 H         1.925388        -0.732583        -1.997449
 H         2.978066         0.651101        -1.656491
 H         2.885467        -2.617221        -0.114714
 H         2.794016        -1.920883         1.634120
 H         4.273081         2.093383         1.309419
 H         3.904663         2.220261        -0.442227
 H         2.629522         0.560945         1.944112
