19
Iteration:    28charge 0 multiplicity 1
 C         0.096615         0.869093        -0.265587
 C         1.482627         0.248926        -0.064702
 C         2.475505         0.015062        -1.152313
 C         3.344442        -0.373406         0.069487
 C         2.696824        -1.665804         0.439177
 O         1.376610        -1.108542         0.705225
 O         4.645566         0.118813         0.075629
 C         4.063505         1.406731         0.506440
 C         2.655296         0.817878         0.812614
 H        -0.545206         0.512082         0.595156
 H         0.114770         1.956932        -0.449944
 H        -0.468566         0.465008        -1.124768
 H         2.323367        -0.624581        -2.096629
 H         2.725960         1.036035        -1.573442
 H         2.727888        -2.537129        -0.307488
 H         3.157037        -2.089079         1.376496
 H         4.583883         1.657147         1.440785
 H         4.147591         2.213068        -0.295104
 H         2.390472         0.932754         1.903111
