19
Iteration:  4640
 C         0.223665         0.967310        -0.095970
 C         1.516722         0.272260        -0.018117
 C         2.510919        -0.002496        -1.245522
 C         3.370119        -0.407396        -0.087547
 C         2.675112        -1.696770         0.617390
 O         1.298969        -1.060815         0.566093
 O         4.629208         0.127442         0.115050
 C         4.005085         1.419299         0.411506
 C         2.640394         0.669302         0.837069
 H        -0.179753         1.405942         0.886402
 H         0.383620         1.914514        -0.664972
 H        -0.517577         0.367313        -0.682418
 H         2.344805        -0.873030        -1.926863
 H         2.651554         0.832638        -1.841707
 H         2.498131        -2.584816         0.026634
 H         3.049545        -1.976501         1.597165
 H         4.609519         1.892508         1.228831
 H         3.978741         2.212531        -0.335354
 H         2.314969         0.592114         1.885060
