19
Iteration:  1565charge 0 multiplicity 1
 C         0.177701         1.076393        -0.212138
 C         1.477178         0.227158        -0.080870
 C         2.538674        -0.079999        -1.162676
 C         3.374612        -0.412518         0.128870
 C         2.641989        -1.734720         0.628177
 O         1.298972        -1.210434         0.476166
 O         4.680761         0.175176         0.085881
 C         3.938156         1.511869         0.418623
 C         2.679795         0.724151         0.877988
 H        -0.319017         1.032943         0.739426
 H         0.464434         2.105100        -0.486194
 H        -0.303409         0.648934        -1.050865
 H         2.278677        -0.793507        -2.028822
 H         2.797625         0.898983        -1.561842
 H         2.662689        -2.558148        -0.084495
 H         2.997836        -1.966149         1.697321
 H         4.443093         2.087142         1.249364
 H         4.040887         2.136892        -0.459371
 H         2.609725         0.726010         1.913784
