19
Iteration:  2313charge 0 multiplicity 1
 C         0.116329         1.073969        -0.138565
 C         1.438753         0.247957        -0.087362
 C         2.463802        -0.165593        -1.176172
 C         3.396834        -0.431633         0.045269
 C         2.683935        -1.702631         0.650703
 O         1.329535        -1.100929         0.402369
 O         4.744011         0.159602         0.108636
 C         4.003308         1.443071         0.433090
 C         2.696536         0.777157         0.907729
 H        -0.260678         1.327958         0.865412
 H         0.208140         2.000323        -0.828711
 H        -0.673224         0.433892        -0.660007
 H         2.042145        -0.996381        -1.820847
 H         2.692667         0.557025        -1.936855
 H         2.896005        -2.603042         0.082996
 H         2.862807        -1.880716         1.768072
 H         4.619818         1.976142         1.268241
 H         3.766697         2.123785        -0.413445
 H         2.369928         0.722754         1.976098
