19
Iteration:   169charge 0 multiplicity 1
 C         0.093968         0.806581        -0.240496
 C         1.469597         0.229088        -0.034276
 C         2.488259         0.096285        -1.169500
 C         3.344609        -0.369091         0.137500
 C         2.677328        -1.691518         0.573626
 O         1.340736        -1.143512         0.553507
 O         4.641535         0.121727        -0.017796
 C         4.132084         1.440139         0.488534
 C         2.641664         0.851198         0.879682
 H        -0.493398         0.759043         0.677891
 H         0.229433         1.799704        -0.667116
 H        -0.465997         0.347143        -1.042151
 H         2.224776        -0.670985        -2.020853
 H         2.739516         1.192394        -1.515890
 H         2.817089        -2.437855        -0.274300
 H         2.990224        -2.255297         1.480138
 H         4.620118         1.542073         1.503190
 H         4.355409         2.271378        -0.112503
 H         2.383883         0.956781         1.875896
