19
Iteration:    35charge 0 multiplicity 1
 C         0.063696         0.869897        -0.282658
 C         1.481144         0.309444        -0.058813
 C         2.442671        -0.007737        -1.132835
 C         3.392534        -0.372085        -0.003472
 C         2.631488        -1.623456         0.467740
 O         1.376282        -1.155391         0.677438
 O         4.685961         0.169327         0.095546
 C         4.064212         1.377347         0.510233
 C         2.691885         0.781159         0.845792
 H        -0.497124         0.565851         0.518638
 H        -0.042660         1.970602        -0.376249
 H        -0.364955         0.391716        -1.154817
 H         2.247983        -0.819968        -1.913611
 H         2.701227         0.966472        -1.574580
 H         2.627882        -2.477542        -0.274909
 H         3.126255        -1.905306         1.401350
 H         4.628888         1.808969         1.395955
 H         4.150409         2.007931        -0.282713
 H         2.505570         0.763637         1.843645
