19
Iteration:  2767
 C         0.144753         0.996364        -0.155997
 C         1.480095         0.238127        -0.103972
 C         2.504849        -0.115424        -1.236580
 C         3.315518        -0.465581         0.084575
 C         2.693796        -1.652023         0.644193
 O         1.270784        -1.086936         0.582591
 O         4.649281         0.137796         0.081168
 C         4.074955         1.476782         0.386513
 C         2.659650         0.756506         0.759572
 H        -0.216840         0.915709         0.860545
 H         0.471191         2.061837        -0.042489
 H        -0.693325         0.655860        -0.813832
 H         2.489165        -1.007074        -1.920250
 H         3.053705         0.767273        -1.595196
 H         2.612576        -2.564053         0.015017
 H         2.989507        -1.857601         1.676553
 H         4.627892         1.949252         1.343744
 H         4.134195         2.321098        -0.460159
 H         2.609288         0.633395         1.867452
