19
Iteration:  1139
 C         0.174891         0.973729        -0.128027
 C         1.514759         0.244262        -0.106841
 C         2.496177        -0.130000        -1.185549
 C         3.382807        -0.357002         0.100046
 C         2.645831        -1.729405         0.551373
 O         1.390038        -1.136375         0.469220
 O         4.625168         0.144616         0.191921
 C         3.927317         1.498123         0.442381
 C         2.652156         0.813182         0.772544
 H        -0.050022         1.170736         0.909814
 H         0.499385         1.877109        -0.587338
 H        -0.709236         0.460192        -0.422737
 H         2.333230        -0.752155        -2.040065
 H         3.069176         0.713445        -1.713726
 H         2.798975        -2.479816        -0.265923
 H         2.875223        -2.091779         1.608366
 H         4.272897         2.009073         1.379679
 H         3.934832         2.007937        -0.571911
 H         2.492137         0.706374         1.870955
