19
Iteration:   855
 C         0.166702         0.941300        -0.141944
 C         1.481491         0.224454        -0.060138
 C         2.507956        -0.044764        -1.277655
 C         3.286515        -0.397233         0.113581
 C         2.725475        -1.642462         0.535268
 O         1.356706        -1.158872         0.494153
 O         4.653434         0.197345         0.183441
 C         4.025814         1.470584         0.490051
 C         2.617552         0.702252         0.772495
 H        -0.265163         1.177477         0.951439
 H         0.332711         1.925359        -0.563094
 H        -0.538469         0.446596        -0.826295
 H         2.169631        -0.837850        -2.014582
 H         2.959336         0.738938        -1.818896
 H         2.914349        -2.459711        -0.154042
 H         2.925795        -2.001157         1.497138
 H         4.493177         1.849194         1.480109
 H         3.932579         2.192010        -0.318181
 H         2.463748         0.810546         1.842400
