19
Iteration:  3788charge 0 multiplicity 1
 C         0.214865         1.148371        -0.110395
 C         1.503378         0.195829        -0.062711
 C         2.471681        -0.144751        -1.220137
 C         3.439995        -0.521151        -0.060007
 C         2.704392        -1.756574         0.619385
 O         1.232890        -1.104721         0.550396
 O         4.657813         0.223460         0.156769
 C         3.981080         1.476010         0.418137
 C         2.684391         0.737703         0.811716
 H        -0.195027         1.193658         0.865031
 H         0.479622         2.088127        -0.555975
 H        -0.586911         0.917148        -0.788280
 H         2.080212        -0.945782        -1.872159
 H         2.679027         0.746976        -1.851243
 H         2.668980        -2.629142        -0.117439
 H         2.872432        -2.061535         1.659343
 H         4.455098         1.965732         1.270154
 H         4.017823         2.122079        -0.462592
 H         2.568769         0.584403         1.884819
