19
Iteration:  2958
 C         0.072095         0.849116        -0.212971
 C         1.464053         0.350557        -0.050007
 C         2.444494        -0.030682        -1.158826
 C         3.357745        -0.483781        -0.022814
 C         2.657226        -1.625841         0.627658
 O         1.258011        -0.976108         0.617787
 O         4.731051         0.099311         0.017739
 C         4.098036         1.373715         0.488860
 C         2.781655         0.755432         0.786650
 H        -0.765068         0.701111         0.548595
 H         0.011369         1.886130        -0.449637
 H        -0.340748         0.157414        -1.019819
 H         2.142256        -0.750053        -1.980537
 H         2.756714         0.934024        -1.506380
 H         2.762020        -2.537050         0.078125
 H         3.038565        -1.758593         1.659014
 H         4.437759         1.741757         1.443491
 H         4.284667         2.335614        -0.242602
 H         2.634495         0.567947         1.893060
