19
Iteration:  4551charge 0 multiplicity 1
 C         0.129583         0.969225        -0.175854
 C         1.498518         0.282105        -0.059522
 C         2.432146        -0.042913        -1.137484
 C         3.357724        -0.493139        -0.049929
 C         2.696390        -1.680220         0.567638
 O         1.245993        -1.072890         0.624556
 O         4.713322         0.179450         0.109100
 C         4.028417         1.394791         0.428656
 C         2.744656         0.714945         0.763132
 H        -0.392836         1.097301         0.758618
 H         0.344784         2.016130        -0.250590
 H        -0.389025         0.503462        -1.055282
 H         2.091237        -0.699046        -1.901419
 H         2.967617         0.850568        -1.579996
 H         2.612207        -2.590650        -0.003504
 H         3.090306        -1.960042         1.514420
 H         4.438067         1.930156         1.300273
 H         3.886338         2.184787        -0.301150
 H         2.640996         0.730815         1.837010
