19
Iteration:  4346
 C         0.188377         0.987166        -0.108351
 C         1.480166         0.227650        -0.088698
 C         2.472933        -0.030322        -1.197398
 C         3.377610        -0.438005         0.034740
 C         2.638409        -1.611169         0.595809
 O         1.291540        -1.068321         0.575653
 O         4.709506         0.148588         0.130435
 C         3.983343         1.397319         0.381680
 C         2.655849         0.709766         0.763701
 H        -0.067187         1.184675         0.939404
 H         0.270015         1.921819        -0.645024
 H        -0.673618         0.493660        -0.538493
 H         2.083628        -0.890330        -1.766426
 H         2.916844         0.898470        -1.724591
 H         2.773212        -2.551030         0.032285
 H         3.109529        -2.021181         1.521858
 H         4.637807         1.824854         1.176532
 H         4.055660         1.951423        -0.639447
 H         2.602722         0.505344         1.865464
