19
Iteration:   276
 C         0.162347         0.983212        -0.197356
 C         1.510247         0.310069         0.029731
 C         2.466510        -0.025118        -1.225974
 C         3.415629        -0.399645        -0.008855
 C         2.666029        -1.720259         0.535955
 O         1.338984        -1.151920         0.511425
 O         4.693243         0.231639         0.144983
 C         3.912970         1.473554         0.488435
 C         2.683769         0.631651         0.850876
 H        -0.327153         1.365695         0.697742
 H         0.223742         1.945190        -0.862212
 H        -0.551552         0.183005        -0.522103
 H         2.225683        -0.850833        -1.800284
 H         2.710455         0.797152        -1.947435
 H         2.717451        -2.600175        -0.069076
 H         2.907871        -1.938220         1.533299
 H         4.421291         1.988341         1.443996
 H         3.926956         1.992175        -0.478016
 H         2.710903         0.312289         1.925999
