19
Iteration:  3013charge 0 multiplicity 1
 C         0.151430         1.023664        -0.100107
 C         1.473192         0.294905        -0.056885
 C         2.432537        -0.065780        -1.234179
 C         3.425735        -0.481588         0.051853
 C         2.603521        -1.672679         0.593997
 O         1.301461        -1.076536         0.518365
 O         4.789692         0.160978         0.195910
 C         3.996710         1.437872         0.368010
 C         2.687581         0.665437         0.796839
 H        -0.157670         1.242482         0.970212
 H         0.249210         1.815072        -0.813019
 H        -0.603129         0.457128        -0.748289
 H         2.007529        -1.012823        -1.644151
 H         2.670542         0.671783        -2.018187
 H         2.680257        -2.444186        -0.123675
 H         2.973483        -1.903475         1.603176
 H         4.331995         2.117363         1.120122
 H         3.948016         2.076185        -0.617100
 H         2.487673         0.715383         1.909197
