19
Iteration:  1289charge 0 multiplicity 1
 C         0.128354         1.040793        -0.182349
 C         1.453918         0.291592        -0.042864
 C         2.542172        -0.102844        -1.177791
 C         3.369864        -0.405081         0.128553
 C         2.642817        -1.664587         0.590028
 O         1.344512        -1.176087         0.439476
 O         4.673041         0.157072         0.102765
 C         3.983590         1.460556         0.443515
 C         2.670303         0.697621         0.829082
 H        -0.172073         1.022348         0.937454
 H         0.286555         2.096066        -0.434971
 H        -0.616886         0.538630        -0.874166
 H         2.528373        -1.003802        -1.832411
 H         2.910261         0.919686        -1.646435
 H         2.943124        -2.521232        -0.031300
 H         2.846182        -1.977738         1.660687
 H         4.318293         2.075003         1.208113
 H         3.980114         2.103331        -0.459870
 H         2.490216         0.739958         1.832330
