19
Iteration:  2130
 C         0.210319         0.947340        -0.215434
 C         1.510663         0.259819         0.001983
 C         2.528151         0.016408        -1.122644
 C         3.322330        -0.426045         0.075675
 C         2.689587        -1.715027         0.561525
 O         1.279326        -1.103983         0.563739
 O         4.683693         0.135429         0.084421
 C         3.976871         1.439090         0.402120
 C         2.636000         0.733056         0.763354
 H        -0.293693         1.158557         0.694760
 H         0.450514         1.943920        -0.680160
 H        -0.385399         0.456107        -0.928421
 H         2.292849        -0.658631        -1.957329
 H         2.942253         0.939043        -1.433482
 H         2.759519        -2.667651         0.021524
 H         3.133074        -1.855479         1.541689
 H         4.358282         1.876275         1.410428
 H         3.736633         2.145463        -0.415529
 H         2.397900         0.609238         1.873600
