19
Iteration:  3233
 C         0.072109         0.940711        -0.265200
 C         1.484098         0.348449        -0.004427
 C         2.443479        -0.049336        -1.239990
 C         3.341981        -0.398139        -0.002095
 C         2.720258        -1.653151         0.570356
 O         1.273645        -1.057284         0.675049
 O         4.743249         0.127388         0.103620
 C         4.078524         1.385677         0.463272
 C         2.678971         0.741857         0.813492
 H        -0.510298         0.946359         0.679125
 H         0.096349         2.018169        -0.669583
 H        -0.508148         0.112934        -0.861144
 H         2.230649        -0.930479        -1.832085
 H         2.699714         0.813384        -1.923819
 H         2.576945        -2.551530        -0.154013
 H         3.159177        -2.061658         1.557067
 H         4.554856         1.703920         1.337233
 H         4.196640         2.127384        -0.366019
 H         2.690292         0.422750         1.851758
