19
Iteration:  3311charge 0 multiplicity 1
 C         0.210353         1.021530        -0.080500
 C         1.516298         0.252851        -0.084530
 C         2.490629        -0.103597        -1.282361
 C         3.402272        -0.469769        -0.023005
 C         2.693569        -1.633713         0.604041
 O         1.295285        -1.075876         0.584250
 O         4.599223         0.185911         0.116237
 C         3.983548         1.420179         0.495871
 C         2.679099         0.672954         0.729355
 H        -0.246634         1.128585         0.939110
 H         0.440220         2.115373        -0.410993
 H        -0.541832         0.474769        -0.760675
 H         2.158371        -0.990191        -1.830661
 H         2.874648         0.698736        -1.838412
 H         2.651485        -2.613812         0.016545
 H         2.945979        -1.770992         1.728145
 H         4.437507         1.952498         1.308790
 H         4.116489         2.053594        -0.367258
 H         2.429556         0.773396         1.795363
