19
Iteration:  4719
 C         0.070606         0.891874        -0.143980
 C         1.467313         0.335268        -0.059032
 C         2.453622         0.048943        -1.275125
 C         3.335644        -0.434312        -0.009017
 C         2.701324        -1.701197         0.561377
 O         1.314999        -0.998499         0.606120
 O         4.670143         0.097558         0.125407
 C         4.081280         1.363200         0.461670
 C         2.789412         0.714343         0.794004
 H        -0.527422         0.786336         0.872251
 H         0.176279         2.033417        -0.385297
 H        -0.522378         0.371138        -0.904188
 H         2.036073        -0.749669        -1.887341
 H         3.035118         0.885322        -1.723000
 H         2.622964        -2.669493         0.120316
 H         2.950188        -1.740084         1.622005
 H         4.475841         1.969447         1.342980
 H         3.965219         1.862917        -0.501670
 H         2.527631         0.559456         1.876427
