19
Iteration:  2968charge 0 multiplicity 1
 C         0.088311         0.859157        -0.206722
 C         1.475533         0.283206        -0.023282
 C         2.453911         0.009805        -1.190330
 C         3.380385        -0.363678         0.040284
 C         2.675274        -1.597392         0.660793
 O         1.262675        -1.029861         0.598685
 O         4.728317         0.058764        -0.025304
 C         4.116910         1.347983         0.476589
 C         2.628121         0.792015         0.803419
 H        -0.371945         0.641960         0.817189
 H         0.095177         1.843825        -0.598235
 H        -0.321212         0.335343        -1.084768
 H         2.237530        -0.660283        -2.082346
 H         2.879482         0.907186        -1.587069
 H         2.701424        -2.489602         0.086931
 H         2.794456        -1.769345         1.725590
 H         4.658493         1.517517         1.361260
 H         4.336272         2.133288        -0.354417
 H         2.599256         0.616306         1.907799
