19
Iteration:  4347
 C         0.189975         0.990928        -0.106053
 C         1.472696         0.217563        -0.098408
 C         2.482775        -0.029739        -1.196829
 C         3.373695        -0.444207         0.039697
 C         2.638073        -1.608401         0.592974
 O         1.291634        -1.069609         0.576116
 O         4.702025         0.154137         0.128218
 C         3.991498         1.400000         0.381366
 C         2.657588         0.707981         0.768910
 H        -0.065016         1.163967         0.948998
 H         0.287267         1.921092        -0.657827
 H        -0.665973         0.535015        -0.526560
 H         2.069455        -0.900309        -1.766761
 H         2.898592         0.918592        -1.734825
 H         2.768053        -2.548268         0.054622
 H         3.128166        -2.019231         1.500181
 H         4.639591         1.857285         1.162994
 H         4.056987         1.910372        -0.634374
 H         2.594215         0.510226         1.900903
