19
Iteration:  3245
 C         0.059336         0.836479        -0.266326
 C         1.452023         0.285683        -0.066022
 C         2.442018         0.074281        -1.168546
 C         3.396028        -0.415565         0.023021
 C         2.670814        -1.584703         0.567262
 O         1.352515        -0.996213         0.673663
 O         4.680536         0.029828         0.115871
 C         4.071884         1.381084         0.427300
 C         2.755831         0.695880         0.835092
 H        -0.490520         0.877832         0.687654
 H         0.087307         1.909564        -0.732168
 H        -0.476701         0.242129        -1.110559
 H         2.031329        -0.588728        -1.948437
 H         2.689857         1.040189        -1.578713
 H         2.698616        -2.446470        -0.193303
 H         2.984992        -1.921927         1.614799
 H         4.675471         1.929240         1.106400
 H         3.886084         2.004662        -0.484377
 H         2.503505         0.645491         1.889657
