19
Iteration:  5000
 C         0.052068         0.940047        -0.148316
 C         1.447047         0.320683        -0.017053
 C         2.512247        -0.054882        -1.184876
 C         3.342103        -0.376721         0.044425
 C         2.623506        -1.656315         0.515596
 O         1.267279        -1.117152         0.550029
 O         4.689612         0.120801         0.123324
 C         4.162635         1.422724         0.394134
 C         2.734158         0.742592         0.815491
 H        -0.195905         1.334593         0.899953
 H         0.194513         1.899707        -0.741014
 H        -0.755422         0.220327        -0.505928
 H         2.088082        -0.909373        -1.636169
 H         2.773388         0.809539        -1.785539
 H         2.800438        -2.524511        -0.199684
 H         3.016187        -2.034749         1.498596
 H         4.822036         1.719753         1.222416
 H         4.068713         2.123403        -0.394250
 H         2.679029         0.754568         1.931000
