19
Iteration:  1980
 C         0.108110         0.971652        -0.216331
 C         1.473686         0.291973        -0.141715
 C         2.555920        -0.038620        -1.169658
 C         3.421122        -0.432879         0.086876
 C         2.682432        -1.634907         0.567700
 O         1.290371        -1.107934         0.583609
 O         4.681052         0.154112         0.102415
 C         4.001641         1.393902         0.466612
 C         2.619319         0.697968         0.809499
 H        -0.021929         1.115323         0.902457
 H         0.315847         2.005807        -0.691692
 H        -0.717267         0.360441        -0.593275
 H         2.252151        -0.687586        -2.050082
 H         2.896547         0.863673        -1.629573
 H         2.559537        -2.554574        -0.059569
 H         3.110172        -1.760212         1.557948
 H         4.571510         1.773993         1.220388
 H         3.924307         2.169371        -0.233656
 H         2.506951         0.492925         1.860928
