19
Iteration:  3064
 C         0.139313         1.097030        -0.244682
 C         1.473176         0.286957        -0.047071
 C         2.392519        -0.103706        -1.123825
 C         3.337920        -0.441514         0.090949
 C         2.688925        -1.709345         0.618071
 O         1.359362        -1.143185         0.530165
 O         4.718558         0.127444         0.017049
 C         4.067778         1.403877         0.440235
 C         2.622977         0.826568         0.845915
 H        -0.100555         1.099788         0.844935
 H         0.296061         2.128828        -0.671783
 H        -0.574260         0.492220        -0.788717
 H         2.086513        -0.871393        -1.938187
 H         2.805019         0.693878        -1.716096
 H         2.887340        -2.690931         0.003292
 H         2.998806        -2.020843         1.663682
 H         4.547970         1.792232         1.389933
 H         3.901543         2.091285        -0.341614
 H         2.522673         0.726935         1.937348
