19
Iteration:  2657
 C         0.048960         0.872961        -0.296639
 C         1.439854         0.329169        -0.052018
 C         2.416422        -0.013381        -1.239382
 C         3.378166        -0.430231         0.001658
 C         2.645959        -1.617156         0.563611
 O         1.270070        -1.008705         0.703424
 O         4.779003         0.101154         0.067584
 C         4.103868         1.413323         0.533282
 C         2.811772         0.700870         0.799582
 H        -0.507027         0.897980         0.656941
 H        -0.062424         1.795685        -0.858932
 H        -0.506097         0.085866        -0.928282
 H         1.967135        -0.945350        -1.702018
 H         2.390404         0.726240        -1.978798
 H         2.634225        -2.593833         0.150342
 H         3.123129        -1.765737         1.500535
 H         4.584000         1.845925         1.499357
 H         4.218039         2.307435        -0.150810
 H         2.529181         0.613409         1.853442
