19
Iteration:  4863
 C         0.156836         0.877672        -0.122173
 C         1.487202         0.313631        -0.037172
 C         2.414484         0.006401        -1.253123
 C         3.364462        -0.420568        -0.031557
 C         2.608853        -1.623701         0.616088
 O         1.227253        -1.061563         0.530205
 O         4.721862         0.102529         0.112112
 C         4.090334         1.441381         0.451310
 C         2.785441         0.721262         0.827374
 H        -0.305067         0.887946         0.908552
 H         0.170411         1.898991        -0.586289
 H        -0.685597         0.236810        -0.659526
 H         1.882763        -0.715568        -1.930159
 H         2.878407         0.938427        -1.746091
 H         2.538486        -2.572486         0.101454
 H         2.962392        -1.892780         1.634985
 H         4.709162         1.748463         1.307131
 H         4.186709         2.019469        -0.510228
 H         2.873467         0.514379         1.888692
