19
Iteration:  3700charge 0 multiplicity 1
 C         0.039913         0.807628        -0.189087
 C         1.451844         0.365039        -0.070985
 C         2.416369        -0.006194        -1.155476
 C         3.354013        -0.450095        -0.042659
 C         2.639631        -1.567893         0.486287
 O         1.391619        -0.956784         0.634367
 O         4.655123         0.051908         0.209740
 C         4.169891         1.396132         0.470430
 C         2.761817         0.725440         0.768327
 H        -0.493036         0.878343         0.739901
 H         0.108605         1.709931        -0.799869
 H        -0.490271         0.103739        -0.846530
 H         2.005295        -0.792373        -1.845275
 H         2.773841         0.806949        -1.790340
 H         2.476082        -2.463305        -0.243001
 H         2.874439        -1.976877         1.484547
 H         4.667335         1.852810         1.350346
 H         3.952156         2.153757        -0.461402
 H         2.670421         0.479373         1.808500
