19
Iteration:  1686
 C         0.085469         0.957214        -0.220482
 C         1.516240         0.240021        -0.086462
 C         2.486931         0.031505        -1.239857
 C         3.387628        -0.465146         0.069458
 C         2.643058        -1.703489         0.636987
 O         1.303826        -1.120675         0.537658
 O         4.715748         0.125602         0.148853
 C         4.010247         1.488266         0.474130
 C         2.676621         0.737730         0.806967
 H        -0.279922         1.333294         0.718480
 H         0.262890         1.841682        -0.912296
 H        -0.550472         0.267590        -0.720399
 H         2.140786        -0.674567        -1.973594
 H         2.999640         1.028595        -1.647071
 H         2.501226        -2.523051        -0.087954
 H         3.162785        -2.003690         1.670789
 H         4.318765         2.124919         1.445581
 H         4.125143         2.111694        -0.507798
 H         2.620386         0.486435         1.840490
