19
Iteration:   920charge 0 multiplicity 1
 C         0.149549         0.835662        -0.261662
 C         1.456690         0.277651        -0.042657
 C         2.426056         0.013441        -1.109356
 C         3.346028        -0.370363         0.115310
 C         2.734317        -1.635966         0.505901
 O         1.302569        -1.148553         0.516828
 O         4.689058         0.132420         0.077988
 C         4.095199         1.399338         0.488075
 C         2.637767         0.839210         0.864465
 H        -0.586751         0.569014         0.641647
 H         0.087809         1.881789        -0.518905
 H        -0.117386         0.451548        -1.266852
 H         2.035874        -0.739342        -1.858270
 H         2.887563         0.908098        -1.456723
 H         2.829138        -2.561707        -0.134275
 H         3.116815        -1.955110         1.503216
 H         4.574086         1.842557         1.319421
 H         4.182555         2.110730        -0.234987
 H         2.265517         0.951271         1.865462
