19
Iteration:  4603
 C         0.020867         0.895828        -0.157424
 C         1.506442         0.372774         0.017863
 C         2.407183        -0.018734        -1.208522
 C         3.393223        -0.410319         0.020453
 C         2.635682        -1.693106         0.557026
 O         1.322943        -1.083520         0.523239
 O         4.740897         0.068974         0.097321
 C         4.225526         1.422267         0.418172
 C         2.615767         0.830361         0.854087
 H        -0.591157         0.767249         0.742265
 H        -0.058373         1.969222        -0.462363
 H        -0.414412         0.191949        -0.968592
 H         2.072702        -0.925085        -1.684281
 H         2.726926         0.867719        -1.899671
 H         2.716412        -2.698523        -0.084020
 H         2.808079        -2.026990         1.648567
 H         4.500846         1.706818         1.451504
 H         4.296238         2.152013        -0.533094
 H         2.559229         0.951490         1.936917
