19
Iteration:  1736
 C         0.192466         1.046771        -0.176410
 C         1.530764         0.291117        -0.123908
 C         2.427675        -0.102771        -1.198381
 C         3.355682        -0.468285         0.076914
 C         2.721883        -1.708324         0.592742
 O         1.280795        -1.135268         0.469874
 O         4.672113         0.242292         0.148692
 C         3.973962         1.461366         0.457800
 C         2.709172         0.703861         0.857109
 H        -0.563529         0.907425         0.680423
 H         0.348298         2.104108        -0.426473
 H        -0.190419         0.451493        -1.101334
 H         2.031461        -1.077354        -1.597960
 H         2.779158         0.650471        -1.796389
 H         2.884299        -2.678369         0.041107
 H         2.799800        -1.944731         1.637734
 H         4.472697         1.792740         1.291733
 H         3.983679         2.160094        -0.348762
 H         2.557929         0.749564         1.986939
