19
Iteration:  3335charge 0 multiplicity 1
 C         0.250060         1.127675        -0.166219
 C         1.457628         0.149968        -0.070792
 C         2.457453        -0.054824        -1.255537
 C         3.384900        -0.421103        -0.007998
 C         2.689820        -1.744280         0.679861
 O         1.291473        -1.160523         0.548329
 O         4.741612         0.175291         0.097264
 C         3.896675         1.460390         0.433695
 C         2.659553         0.711923         0.812075
 H         0.015659         1.454187         0.947280
 H         0.621709         2.184002        -0.587866
 H        -0.731010         0.721166        -0.651788
 H         2.111195        -0.864971        -1.908820
 H         2.647522         0.907878        -1.700795
 H         2.737930        -2.660621         0.010411
 H         2.797101        -1.972288         1.825126
 H         4.545386         2.056169         1.205505
 H         3.830781         2.122918        -0.414746
 H         2.630908         0.559763         1.937973
