19
Iteration:   722charge 0 multiplicity 1
 C         0.108003         0.876846        -0.213346
 C         1.491123         0.308402        -0.112062
 C         2.527419         0.025481        -1.122388
 C         3.410464        -0.486706        -0.017322
 C         2.750442        -1.678530         0.600296
 O         1.300132        -1.079387         0.467114
 O         4.670620         0.196885         0.136112
 C         3.958750         1.451373         0.454993
 C         2.651952         0.677646         0.910507
 H        -0.581789         0.561908         0.684253
 H         0.389886         1.966355        -0.124345
 H        -0.521133         0.587949        -1.049114
 H         2.404689        -0.726177        -1.854355
 H         2.946741         0.944171        -1.678980
 H         2.613259        -2.581055         0.069246
 H         2.788203        -1.942505         1.642646
 H         4.507475         1.913499         1.285029
 H         3.837394         2.096116        -0.473924
 H         2.595694         0.715468         1.933587
