19
Iteration:  3675charge 0 multiplicity 1
 C         0.117463         0.970704        -0.149645
 C         1.457516         0.269118        -0.121343
 C         2.451401         0.058773        -1.220345
 C         3.328732        -0.432826         0.037347
 C         2.707422        -1.669439         0.569687
 O         1.287543        -1.109301         0.608160
 O         4.743396         0.061616         0.125637
 C         4.101369         1.385739         0.418083
 C         2.663192         0.812375         0.809455
 H        -0.284360         1.098887         0.857096
 H         0.132064         1.720098        -0.880896
 H        -0.545921         0.250552        -0.640310
 H         2.273144        -0.723159        -1.868730
 H         2.689962         0.919901        -1.769085
 H         2.642305        -2.627125         0.054293
 H         3.037247        -1.791947         1.614107
 H         4.552594         1.715750         1.344721
 H         3.950337         2.157302        -0.323306
 H         2.424415         0.816775         1.849589
