19
Iteration:   660charge 0 multiplicity 1
 C         0.143726         0.986077        -0.209780
 C         1.461214         0.292292        -0.148606
 C         2.479588        -0.029593        -1.229289
 C         3.405684        -0.405253        -0.010813
 C         2.716528        -1.638779         0.597826
 O         1.341258        -1.148853         0.554261
 O         4.658030         0.208430         0.161168
 C         3.928049         1.382010         0.508934
 C         2.665896         0.646574         0.867574
 H        -0.187756         1.301853         0.759698
 H         0.176068         1.781843        -0.880108
 H        -0.530085         0.317025        -0.711839
 H         2.425051        -0.735379        -2.071745
 H         2.792175         0.946779        -1.516698
 H         2.905408        -2.429128        -0.183161
 H         3.189521        -1.906804         1.555946
 H         4.405323         1.915268         1.403953
 H         3.898752         2.147180        -0.275494
 H         2.614417         0.415631         2.059947
