19
Iteration:  4860charge 0 multiplicity 1
 C         0.140432         0.874673        -0.115290
 C         1.486594         0.313727        -0.063998
 C         2.427643        -0.001671        -1.246400
 C         3.318109        -0.407378         0.000435
 C         2.629424        -1.645587         0.595808
 O         1.261372        -1.054698         0.522198
 O         4.718899         0.090692         0.109561
 C         4.078376         1.443153         0.420855
 C         2.777044         0.723840         0.827254
 H        -0.258125         1.073914         0.909618
 H         0.206541         1.899498        -0.500969
 H        -0.618405         0.361155        -0.597206
 H         1.968784        -0.774847        -1.784612
 H         2.923764         0.889464        -1.633812
 H         2.458336        -2.603767         0.090897
 H         3.013980        -1.780034         1.644621
 H         4.649338         1.688019         1.359633
 H         4.174278         2.124586        -0.444437
 H         2.793811         0.447158         1.914655
