19
Iteration:  2842charge 0 multiplicity 1
 C         0.082665         0.943692        -0.195549
 C         1.494007         0.256790        -0.198893
 C         2.465566        -0.047089        -1.214722
 C         3.355720        -0.404952         0.065429
 C         2.659383        -1.639693         0.569271
 O         1.293186        -1.080804         0.706106
 O         4.736428         0.103275         0.068247
 C         4.107226         1.424884         0.436620
 C         2.646075         0.786937         0.784359
 H        -0.127468         1.090806         0.858616
 H         0.134450         1.977917        -0.585068
 H        -0.799096         0.272609        -0.452643
 H         2.043367        -0.851476        -1.876913
 H         2.951612         0.853212        -1.667627
 H         2.756221        -2.565365        -0.078251
 H         2.880286        -2.125740         1.570061
 H         4.573825         1.867514         1.419751
 H         4.335549         2.180606        -0.271442
 H         2.340116         0.603633         1.829823
