19
Iteration:   411charge 0 multiplicity 1
 C         0.238898         0.964122        -0.206615
 C         1.512555         0.236227        -0.001091
 C         2.427863        -0.137315        -1.184399
 C         3.300182        -0.389797         0.044399
 C         2.805935        -1.737574         0.571832
 O         1.282700        -1.110808         0.427863
 O         4.713561         0.242797         0.124319
 C         3.906800         1.469985         0.519304
 C         2.648747         0.747357         0.850860
 H        -0.243326         1.041912         0.832342
 H         0.464033         1.957828        -0.537340
 H        -0.396471         0.483479        -0.973557
 H         1.967918        -0.852424        -1.895416
 H         2.686474         0.688760        -1.862932
 H         2.837901        -2.576761        -0.067387
 H         3.092943        -1.870390         1.592504
 H         4.437875         1.840654         1.493212
 H         3.928979         2.260718        -0.301688
 H         2.480464         0.588219         1.849009
