19
Iteration:  2979
 C         0.142779         0.870067        -0.226924
 C         1.464811         0.241367        -0.087804
 C         2.488482         0.063698        -1.201582
 C         3.303379        -0.358671         0.083562
 C         2.635524        -1.571156         0.675021
 O         1.339772        -1.113695         0.554846
 O         4.645468         0.033075        -0.016727
 C         4.180440         1.357507         0.455636
 C         2.657260         0.823862         0.859905
 H        -0.416381         0.935436         0.782575
 H         0.261055         1.910426        -0.327689
 H        -0.665359         0.334989        -0.750770
 H         2.216576        -0.864128        -1.807268
 H         2.811467         0.905593        -1.764948
 H         2.674118        -2.485540         0.125535
 H         3.036389        -1.793908         1.669885
 H         4.710023         1.681770         1.302910
 H         4.129870         2.168582        -0.363389
 H         2.296290         0.882526         1.919804
