19
Iteration:  4157
 C         0.104795         0.876605        -0.268210
 C         1.476278         0.382581        -0.046304
 C         2.475684         0.018257        -1.177072
 C         3.319465        -0.429053         0.016280
 C         2.582393        -1.670663         0.532914
 O         1.345659        -1.097586         0.716586
 O         4.661569         0.094970         0.043798
 C         4.138558         1.362264         0.468075
 C         2.729162         0.816346         0.825251
 H        -0.430310         1.042447         0.628295
 H         0.001841         1.702462        -0.952579
 H        -0.246742        -0.041211        -0.740848
 H         2.136796        -0.758266        -1.853995
 H         2.839829         0.962914        -1.536696
 H         2.697037        -2.466469        -0.280729
 H         2.848634        -1.959495         1.586288
 H         4.838934         1.700240         1.301134
 H         4.158124         2.233053        -0.281226
 H         2.413081         0.860032         1.854093
