19
Iteration:  1998charge 0 multiplicity 1
 C         0.263665         1.032002        -0.125646
 C         1.502214         0.205849        -0.097591
 C         2.473229        -0.081485        -1.233649
 C         3.349542        -0.418970         0.034383
 C         2.664265        -1.732530         0.566063
 O         1.303799        -1.102144         0.533112
 O         4.665591         0.179261         0.136825
 C         3.933603         1.463255         0.480140
 C         2.652147         0.744914         0.822252
 H        -0.195444         1.447423         0.735186
 H         0.526273         1.770322        -0.878006
 H        -0.500053         0.353334        -0.557186
 H         2.408653        -0.928813        -1.878654
 H         2.877246         0.798564        -1.875677
 H         2.818991        -2.577540        -0.112696
 H         2.802639        -2.142947         1.583201
 H         4.391600         2.017163         1.411714
 H         3.966816         2.201756        -0.420633
 H         2.614155         0.778410         2.019954
