19
Iteration:   713
 C         0.123605         0.923180        -0.198429
 C         1.489197         0.236852        -0.085332
 C         2.565495        -0.019277        -1.162112
 C         3.400501        -0.419524         0.095983
 C         2.647134        -1.732890         0.586681
 O         1.310623        -1.127685         0.470220
 O         4.672287         0.197750         0.082355
 C         3.954892         1.529504         0.484425
 C         2.670364         0.698151         0.891827
 H        -0.560555         0.837139         0.654040
 H         0.371172         1.938197        -0.283406
 H        -0.321692         0.722872        -1.126413
 H         2.214244        -0.740152        -1.895096
 H         2.929572         0.811928        -1.745925
 H         2.716123        -2.572545        -0.098842
 H         3.062809        -2.000624         1.527834
 H         4.554796         2.093501         1.297927
 H         3.818432         2.207996        -0.448899
 H         2.562147         0.496017         2.017851
