19
Iteration:   453
 C         0.113389         0.816515        -0.244876
 C         1.455895         0.256235        -0.070758
 C         2.452554         0.075909        -1.151295
 C         3.411652        -0.439912         0.030339
 C         2.772605        -1.693219         0.525494
 O         1.271729        -1.043661         0.536645
 O         4.697301         0.151499         0.093819
 C         4.036129         1.406577         0.521832
 C         2.634985         0.782070         0.857116
 H        -0.291000         1.211734         0.815300
 H         0.037366         1.561803        -1.020070
 H        -0.482833        -0.029751        -0.665672
 H         2.426657        -0.659430        -1.919859
 H         2.923502         1.009362        -1.585258
 H         2.646596        -2.602791        -0.124121
 H         2.970803        -1.944289         1.571773
 H         4.428071         1.812372         1.571345
 H         4.132372         2.234861        -0.211796
 H         2.465771         0.741737         1.961180
