19
Iteration:  1814
 C         0.049410         0.860366        -0.244174
 C         1.488503         0.324392        -0.062804
 C         2.419048        -0.080504        -1.230119
 C         3.377257        -0.415521         0.038353
 C         2.707875        -1.631717         0.512276
 O         1.294106        -1.004628         0.550117
 O         4.753795         0.128444         0.178873
 C         4.097142         1.424069         0.562592
 C         2.675366         0.709707         0.826098
 H        -0.355034         1.060711         0.798913
 H         0.114976         1.855295        -0.882727
 H        -0.719098         0.081128        -0.618931
 H         2.098095        -0.908053        -1.896097
 H         2.838830         0.795219        -1.892236
 H         2.777733        -2.482852        -0.313578
 H         2.868759        -2.050887         1.532621
 H         4.631836         2.028976         1.273644
 H         4.076192         2.128367        -0.311388
 H         2.419119         0.733552         1.920717
