19
Iteration:  3107
 C         0.090936         0.801963        -0.211808
 C         1.532023         0.328596        -0.085185
 C         2.449431         0.006621        -1.204811
 C         3.397233        -0.448612        -0.050270
 C         2.628576        -1.608073         0.652103
 O         1.270243        -0.969074         0.655794
 O         4.733221         0.083241         0.044503
 C         4.085724         1.359055         0.489884
 C         2.693687         0.750479         0.823620
 H        -0.411318         0.673234         0.758552
 H         0.012503         1.858196        -0.553821
 H        -0.401123         0.369322        -1.038814
 H         2.024050        -0.565900        -2.122126
 H         2.800698         0.960334        -1.577729
 H         2.376372        -2.476447        -0.072052
 H         2.969001        -1.989709         1.633436
 H         4.746338         1.819570         1.380687
 H         4.214582         2.063749        -0.349113
 H         2.374855         0.691363         1.872581
