19
Iteration:  3333
 C         0.263690         1.124162        -0.161649
 C         1.477301         0.159162        -0.099407
 C         2.448788        -0.064269        -1.252245
 C         3.358212        -0.409911        -0.018737
 C         2.679368        -1.733843         0.681827
 O         1.292176        -1.161845         0.561487
 O         4.759792         0.169909         0.106462
 C         3.897881         1.465565         0.427887
 C         2.646442         0.710763         0.809298
 H        -0.007962         1.381810         0.894626
 H         0.649882         2.152192        -0.535685
 H        -0.713376         0.700228        -0.563207
 H         2.112382        -0.838704        -1.955164
 H         2.647148         0.873754        -1.639468
 H         2.743147        -2.644378        -0.005632
 H         2.832522        -1.926953         1.829172
 H         4.467303         1.975439         1.180884
 H         3.805186         2.199391        -0.341920
 H         2.662023         0.481113         1.897950
