19
Iteration:  1191
 C         0.116694         0.878925        -0.286321
 C         1.483688         0.287881        -0.069227
 C         2.428584         0.059889        -1.173909
 C         3.400727        -0.415178         0.039216
 C         2.745395        -1.704104         0.586596
 O         1.244367        -1.052938         0.526702
 O         4.687849         0.141994         0.086804
 C         4.050567         1.421728         0.518100
 C         2.691415         0.718568         0.905988
 H        -0.438137         1.041442         0.733814
 H         0.071431         1.709019        -1.004118
 H        -0.301929        -0.056919        -0.791363
 H         2.157072        -0.756859        -1.890898
 H         2.940088         0.967437        -1.747353
 H         2.626380        -2.661266         0.168589
 H         3.183195        -1.839072         1.618606
 H         4.652682         1.811522         1.280421
 H         4.002307         2.212890        -0.274887
 H         2.473602         0.686803         1.942512
