19
Iteration:  4395
 C         0.186548         1.021914        -0.177106
 C         1.548317         0.362443        -0.037714
 C         2.371781        -0.118405        -1.183022
 C         3.364263        -0.427154         0.018969
 C         2.665200        -1.712903         0.586586
 O         1.330794        -1.074300         0.532867
 O         4.670900         0.186659         0.064096
 C         4.021701         1.409707         0.397707
 C         2.716146         0.664393         0.910172
 H        -0.359338         0.880162         0.761896
 H         0.266714         2.100895        -0.381604
 H        -0.473946         0.631115        -0.980652
 H         2.184302        -1.034640        -1.741230
 H         2.780153         0.665550        -1.719921
 H         2.720688        -2.686975         0.178106
 H         2.880477        -1.853983         1.611924
 H         4.659843         1.898437         1.125369
 H         3.768967         1.949866        -0.425479
 H         2.349725         0.763203         1.927330
