19
Iteration:  4318
 C         0.064437         0.870690        -0.194067
 C         1.538467         0.334086        -0.055590
 C         2.392481        -0.031925        -1.202154
 C         3.346889        -0.417028         0.043922
 C         2.632679        -1.682328         0.601698
 O         1.325536        -1.039917         0.550312
 O         4.651625         0.096293         0.063088
 C         4.149095         1.459450         0.498555
 C         2.738273         0.769260         0.833510
 H        -0.381272         1.241170         0.783899
 H        -0.070465         1.818860        -0.832598
 H        -0.531532         0.009370        -0.607304
 H         1.907141        -0.900347        -1.708465
 H         2.863291         0.662198        -1.893232
 H         2.654245        -2.575260        -0.115638
 H         3.103620        -1.769567         1.608575
 H         4.902577         1.860060         1.181140
 H         4.251213         2.022873        -0.388579
 H         2.606842         0.614984         1.944511
