19
Iteration:  3160
 C         0.200780         1.036883        -0.128182
 C         1.490413         0.222371        -0.046333
 C         2.362184        -0.006108        -1.227849
 C         3.312576        -0.413716         0.078156
 C         2.703971        -1.716056         0.629114
 O         1.278085        -1.092042         0.496863
 O         4.740619         0.168281         0.180200
 C         4.005702         1.437559         0.312334
 C         2.738007         0.669402         0.834676
 H        -0.242931         1.207800         0.827303
 H         0.381446         1.966822        -0.699046
 H        -0.428796         0.459550        -0.733671
 H         2.043369        -0.755789        -1.940388
 H         2.731408         0.756056        -1.818757
 H         2.848888        -2.613898         0.141206
 H         2.779884        -1.929914         1.646525
 H         4.434740         2.012575         1.194980
 H         4.006916         1.820261        -0.686269
 H         2.671494         0.602004         1.911150
