19
Iteration:   972
 C         0.198550         0.993718        -0.146721
 C         1.520281         0.210173        -0.056646
 C         2.509478        -0.064779        -1.257534
 C         3.360744        -0.367829         0.053055
 C         2.665306        -1.687488         0.586534
 O         1.289830        -1.157047         0.484186
 O         4.715956         0.257116         0.162434
 C         3.961526         1.455667         0.484482
 C         2.642535         0.679135         0.804680
 H        -0.135159         1.321909         0.864499
 H         0.306984         1.827721        -0.772708
 H        -0.566955         0.375671        -0.569542
 H         2.117987        -1.013411        -1.752212
 H         2.772512         0.716759        -1.936744
 H         2.726608        -2.534439        -0.187915
 H         2.852609        -2.153988         1.669739
 H         4.352361         1.852287         1.381526
 H         3.912609         2.363704        -0.378304
 H         2.558215         0.530862         1.818056
