19
Iteration:  4612charge 0 multiplicity 1
 C         0.043827         0.898571        -0.130597
 C         1.465929         0.341589        -0.079021
 C         2.397834         0.004785        -1.161108
 C         3.390741        -0.363352         0.038010
 C         2.628706        -1.660055         0.619363
 O         1.314657        -1.114123         0.539121
 O         4.744827         0.064397         0.105153
 C         4.151641         1.395612         0.456324
 C         2.739528         0.783400         0.756904
 H        -0.549031         0.814338         0.796811
 H         0.169139         1.878124        -0.656661
 H        -0.642570         0.450615        -0.842710
 H         2.159772        -0.864590        -1.799813
 H         2.670567         0.883995        -1.845574
 H         2.641125        -2.350624        -0.271502
 H         2.899201        -2.152244         1.616240
 H         4.676736         1.847509         1.327792
 H         4.065007         2.205200        -0.365170
 H         2.434637         0.784353         1.832608
