19
Iteration:  2359charge 0 multiplicity 1
 C         0.071208         0.776105        -0.253808
 C         1.459559         0.320947        -0.012582
 C         2.423377         0.001223        -1.253667
 C         3.392500        -0.406413         0.032375
 C         2.660866        -1.631709         0.502924
 O         1.327867        -0.966898         0.632675
 O         4.728231         0.060247         0.174966
 C         4.067148         1.383186         0.482268
 C         2.683731         0.791116         0.815555
 H        -0.266801         1.238730         0.758524
 H         0.080184         1.705939        -0.976499
 H        -0.674356         0.065182        -0.583955
 H         2.147075        -0.719664        -2.053854
 H         2.833492         0.794561        -1.863916
 H         2.517506        -2.541529        -0.161372
 H         3.129171        -1.945899         1.472676
 H         4.741204         1.887673         1.307420
 H         4.095426         1.902748        -0.401345
 H         2.688204         0.817034         1.927183
