19
Iteration:   807charge 0 multiplicity 1
 C         0.246551         0.896504        -0.213136
 C         1.530967         0.282425        -0.068909
 C         2.485888         0.003047        -1.161582
 C         3.368619        -0.444666         0.017972
 C         2.695061        -1.703120         0.554710
 O         1.305007        -1.100640         0.497141
 O         4.625830         0.262277         0.119064
 C         3.961672         1.442206         0.513849
 C         2.659597         0.656994         0.912113
 H        -0.162959         1.455076         0.639722
 H         0.214705         1.639283        -1.105549
 H        -0.334505         0.069606        -0.693703
 H         2.173067        -0.554529        -2.032402
 H         2.789863         1.038519        -1.603655
 H         2.567292        -2.683465        -0.010411
 H         2.947722        -2.089179         1.622846
 H         4.457140         2.025253         1.168061
 H         3.818730         2.056687        -0.339460
 H         2.544728         0.367861         1.935067
