19
Iteration:  3250charge 0 multiplicity 1
 C         0.071357         0.800865        -0.265875
 C         1.467284         0.267204        -0.058318
 C         2.403466         0.081698        -1.141996
 C         3.357090        -0.408845         0.030440
 C         2.638534        -1.597817         0.544304
 O         1.378096        -0.982473         0.651035
 O         4.682768         0.018543         0.113375
 C         4.086468         1.404100         0.407504
 C         2.748862         0.716799         0.863961
 H        -0.482413         0.849316         0.671055
 H         0.096128         1.751447        -0.711931
 H        -0.417899         0.374934        -1.089187
 H         2.164261        -0.424026        -2.114981
 H         2.863030         1.010005        -1.569074
 H         2.669872        -2.531329         0.024537
 H         2.959535        -1.860726         1.515090
 H         4.679569         2.009723         1.203094
 H         3.918418         1.824532        -0.576923
 H         2.590139         0.758020         1.961574
