19
Iteration:  2423charge 0 multiplicity 1
 C         0.177532         1.077960        -0.178880
 C         1.488444         0.265451        -0.031264
 C         2.596157        -0.125348        -1.224286
 C         3.339993        -0.492436         0.013048
 C         2.663675        -1.663577         0.682115
 O         1.307260        -1.107866         0.520427
 O         4.692669         0.169417         0.077448
 C         3.901289         1.431817         0.399799
 C         2.692043         0.692973         0.826847
 H        -0.365217         0.827056         0.737221
 H         0.419000         2.190408        -0.207789
 H        -0.446950         0.663172        -0.933016
 H         2.190471        -0.821322        -1.968934
 H         2.942418         0.774334        -1.692728
 H         2.567146        -2.623199         0.230225
 H         3.042781        -1.678247         1.734862
 H         4.551815         2.023157         1.177485
 H         3.660176         2.261715        -0.297746
 H         2.420606         0.659842         1.897859
