19
Iteration:  4704charge 0 multiplicity 1
 C         0.199155         0.973660        -0.142540
 C         1.536496         0.303194        -0.062754
 C         2.422927         0.020556        -1.203817
 C         3.371303        -0.458424         0.026618
 C         2.674964        -1.656620         0.607612
 O         1.318244        -1.060299         0.561520
 O         4.696404         0.064219         0.096166
 C         3.992517         1.455800         0.402693
 C         2.621474         0.690294         0.846104
 H        -0.208891         0.849848         0.853096
 H         0.232939         1.943114        -0.589271
 H        -0.516853         0.371151        -0.746309
 H         2.193943        -0.719259        -2.016973
 H         2.572334         0.991508        -1.641102
 H         2.616463        -2.485257        -0.186314
 H         3.046849        -2.026267         1.594132
 H         4.771799         1.781740         1.197364
 H         4.047614         2.191368        -0.490669
 H         2.472574         0.606196         1.914470
