19
Iteration:   187
 C         0.090756         0.794986        -0.232567
 C         1.476512         0.354259        -0.007554
 C         2.398465        -0.027792        -1.178880
 C         3.352470        -0.342639        -0.015034
 C         2.715180        -1.599200         0.491126
 O         1.309919        -1.136095         0.565733
 O         4.683429         0.135270         0.067937
 C         4.109012         1.376503         0.585021
 C         2.678284         0.825197         0.812275
 H        -0.493973         0.530684         0.633779
 H         0.054766         1.944539        -0.283737
 H        -0.370538         0.285575        -1.133979
 H         2.229884        -0.847839        -1.798885
 H         2.845353         0.796866        -1.605576
 H         2.821542        -2.515959        -0.041588
 H         3.058341        -1.714289         1.492119
 H         4.576356         1.754145         1.565722
 H         4.259752         2.137269        -0.228244
 H         2.563419         0.578680         1.902771
