19
Iteration:  1899
 C         0.200134         0.956984        -0.231504
 C         1.496294         0.259075        -0.083095
 C         2.487003        -0.046988        -1.230216
 C         3.352299        -0.422757         0.080962
 C         2.648397        -1.711020         0.551969
 O         1.295451        -1.052488         0.593167
 O         4.709000         0.176261         0.151857
 C         4.008025         1.421940         0.477818
 C         2.665777         0.713311         0.759853
 H        -0.144579         0.741473         0.785602
 H         0.221359         2.032482        -0.238850
 H        -0.515087         0.503272        -0.957717
 H         2.314045        -0.801750        -2.003330
 H         2.692904         0.977612        -1.598040
 H         2.622951        -2.596657        -0.077625
 H         3.061027        -2.051296         1.520587
 H         4.286190         1.932744         1.353855
 H         3.920337         1.985578        -0.441306
 H         2.465666         0.759936         1.924044
