19
Iteration:  1063charge 0 multiplicity 1
 C         0.057161         0.871802        -0.313235
 C         1.430392         0.290116        -0.075931
 C         2.521998        -0.073226        -1.151527
 C         3.353124        -0.389986         0.021757
 C         2.656900        -1.623977         0.527885
 O         1.396143        -1.132922         0.621643
 O         4.689018         0.081128         0.053451
 C         4.026556         1.452483         0.552624
 C         2.692720         0.855606         0.876718
 H        -0.553075         0.680564         0.623872
 H         0.164404         2.003305        -0.440501
 H        -0.507375         0.455597        -1.211527
 H         2.058910        -0.688112        -1.898633
 H         2.956431         0.880431        -1.638131
 H         2.866263        -2.496639        -0.287869
 H         3.181409        -2.034757         1.509298
 H         4.591165         1.685950         1.558512
 H         3.976740         2.429616        -0.151303
 H         2.327728         0.824825         1.972930
