19
Iteration:   378
 C         0.161443         1.020340        -0.158952
 C         1.473855         0.303640        -0.109009
 C         2.582828        -0.058934        -1.218067
 C         3.313070        -0.437373         0.024228
 C         2.770998        -1.756682         0.527957
 O         1.267134        -1.175768         0.576534
 O         4.683895         0.233288         0.218685
 C         3.960527         1.466959         0.393625
 C         2.644823         0.697715         0.795814
 H        -0.328771         0.651479         0.807479
 H         0.223986         2.073156        -0.150342
 H        -0.494287         0.662794        -0.948870
 H         2.277616        -0.902050        -1.853469
 H         2.877897         0.946695        -1.523789
 H         2.845591        -2.578103        -0.120028
 H         3.184443        -1.996627         1.484591
 H         4.273495         2.154686         1.271238
 H         3.815253         2.206936        -0.454530
 H         2.506343         0.540115         1.794570
