19
Iteration:  2636
 C         0.178866         0.890399        -0.139747
 C         1.434459         0.246286        -0.110622
 C         2.414916        -0.084134        -1.234877
 C         3.295408        -0.434972        -0.020759
 C         2.681653        -1.577982         0.653811
 O         1.347465        -1.037334         0.589499
 O         4.669881         0.128676         0.126158
 C         4.100658         1.385146         0.478084
 C         2.714555         0.775909         0.765544
 H        -0.510791         0.808109         0.691125
 H         0.267863         1.907294        -0.506167
 H        -0.471665         0.579083        -1.026853
 H         2.079881        -0.798887        -2.050714
 H         2.873948         0.751948        -1.706425
 H         2.704686        -2.494808         0.086770
 H         2.835428        -1.873943         1.644668
 H         4.610118         1.888445         1.307809
 H         4.209286         2.127133        -0.351278
 H         2.567184         0.745061         1.862186
