19
Iteration:  2336
 C         0.197759         0.898400        -0.161518
 C         1.474717         0.299244        -0.087834
 C         2.553340         0.030035        -1.178579
 C         3.332519        -0.400782         0.079074
 C         2.612329        -1.668752         0.622148
 O         1.301685        -1.108462         0.571996
 O         4.637635         0.110728         0.132628
 C         4.052767         1.437474         0.392476
 C         2.670322         0.732800         0.733791
 H        -0.134651         1.294460         0.844392
 H         0.102884         1.733747        -0.985157
 H        -0.524070         0.110479        -0.458009
 H         2.218064        -0.626476        -2.025405
 H         2.885955         0.881066        -1.670749
 H         2.747930        -2.515532        -0.086816
 H         3.029047        -1.974520         1.630147
 H         4.679098         1.796779         1.311832
 H         3.992172         2.139366        -0.385543
 H         2.535357         0.691532         1.854754
