19
Iteration:  3131charge 0 multiplicity 1
 C         0.069848         0.927012        -0.183086
 C         1.481533         0.317312        -0.070678
 C         2.492920        -0.056900        -1.145505
 C         3.280810        -0.386371         0.070492
 C         2.616296        -1.686441         0.499291
 O         1.382707        -1.052652         0.626543
 O         4.684128         0.048595         0.140249
 C         4.084720         1.438692         0.375365
 C         2.728112         0.840994         0.816996
 H        -0.367758         0.780050         0.869686
 H        -0.110405         1.918746        -0.582596
 H        -0.527414         0.372173        -0.991791
 H         2.232404        -0.992715        -1.809994
 H         2.830118         0.811060        -1.800987
 H         2.654600        -2.505110        -0.387307
 H         2.837263        -2.229199         1.503161
 H         4.634721         1.938808         1.268846
 H         4.343630         2.027072        -0.523071
 H         2.642988         0.725355         1.933815
