19
Iteration:  4791charge 0 multiplicity 1
 C         0.199989         1.013797        -0.175153
 C         1.461134         0.316641        -0.024841
 C         2.404336        -0.010600        -1.228934
 C         3.364654        -0.480782        -0.015141
 C         2.711878        -1.686665         0.576142
 O         1.232925        -1.048778         0.572164
 O         4.775642         0.145341         0.069632
 C         3.956016         1.405114         0.405802
 C         2.728546         0.651710         0.920133
 H        -0.219394         1.161285         0.796689
 H         0.515800         1.954559        -0.592893
 H        -0.582554         0.541072        -0.750285
 H         2.034393        -0.880395        -1.843432
 H         2.860196         0.812091        -1.675178
 H         2.877737        -2.618309        -0.066166
 H         3.070782        -1.793529         1.615352
 H         4.349468         1.858572         1.289112
 H         3.615976         1.964816        -0.452341
 H         2.710957         0.454375         2.009397
