19
Iteration:  3424
 C         0.071650         0.850394        -0.165958
 C         1.428626         0.319141        -0.091918
 C         2.366514        -0.013577        -1.279556
 C         3.306443        -0.357166        -0.019295
 C         2.696876        -1.589333         0.596787
 O         1.373700        -1.014773         0.591796
 O         4.734274         0.033192         0.156350
 C         4.185459         1.372296         0.468761
 C         2.648970         0.769925         0.805115
 H        -0.633033         0.566890         0.712907
 H         0.184802         1.972085        -0.319339
 H        -0.476846         0.238684        -0.917172
 H         2.043339        -0.793344        -1.954385
 H         2.816590         0.799300        -1.923123
 H         2.810046        -2.526504        -0.029384
 H         2.924149        -1.700603         1.721188
 H         4.726936         1.633107         1.436102
 H         4.263300         2.142843        -0.261879
 H         2.450096         0.664854         1.893972
