19
Iteration:  1348charge 0 multiplicity 1
 C         0.059125         0.866245        -0.306359
 C         1.454956         0.290229        -0.010360
 C         2.497867         0.057908        -1.211550
 C         3.298834        -0.411636         0.027145
 C         2.747889        -1.695674         0.535150
 O         1.285070        -1.052821         0.632892
 O         4.716042         0.121536         0.106694
 C         4.079827         1.377958         0.541181
 C         2.653093         0.774543         0.791753
 H        -0.329227         1.177719         0.699725
 H         0.205383         1.809307        -0.963353
 H        -0.690848         0.099957        -0.638105
 H         2.526904        -0.726742        -2.039447
 H         3.020714         0.830158        -1.717214
 H         2.839131        -2.546298        -0.185101
 H         3.089942        -1.955321         1.551158
 H         4.542873         1.835191         1.540462
 H         4.103317         2.011918        -0.357211
 H         2.460101         0.760594         1.972014
