19
Iteration:  4167charge 0 multiplicity 1
 C         0.107812         0.885221        -0.248037
 C         1.517224         0.393508        -0.055836
 C         2.388895        -0.004216        -1.193716
 C         3.339582        -0.405346         0.052684
 C         2.637529        -1.665334         0.509104
 O         1.224891        -1.137279         0.677012
 O         4.732881         0.074342         0.049546
 C         4.145233         1.459421         0.502420
 C         2.750997         0.801049         0.802912
 H        -0.294839         0.964570         0.730532
 H         0.041411         1.729913        -0.936545
 H        -0.593886         0.181636        -0.701593
 H         2.192284        -0.829607        -1.846656
 H         2.880985         0.691955        -1.860910
 H         2.571676        -2.641433         0.127392
 H         3.097265        -1.938837         1.462995
 H         4.459363         1.820529         1.539679
 H         4.139115         2.172571        -0.371575
 H         2.822716         0.795372         1.895772
