19
Iteration:    17
 C         0.125170         0.816734        -0.215088
 C         1.435194         0.214379        -0.055961
 C         2.502423         0.074940        -1.226602
 C         3.295717        -0.385375         0.096380
 C         2.801219        -1.751847         0.505851
 O         1.362209        -1.029926         0.658352
 O         4.630347         0.073982         0.061218
 C         4.060427         1.472716         0.479414
 C         2.593023         0.818536         0.807178
 H        -0.513262         0.893239         0.709530
 H         0.431548         1.884818        -0.305062
 H        -0.338382         0.425552        -1.128026
 H         2.284223        -0.760416        -2.015016
 H         2.987779         1.050604        -1.544963
 H         2.685889        -2.345309        -0.466701
 H         2.982510        -2.287356         1.474469
 H         4.471116         1.744334         1.477384
 H         4.268602         2.354763        -0.223169
 H         2.386924         0.721615         1.913687
