19
Iteration:  1600charge 0 multiplicity 1
 C         0.229772         0.989550        -0.257619
 C         1.541298         0.268225        -0.055789
 C         2.455409        -0.142454        -1.214953
 C         3.361617        -0.410656         0.081114
 C         2.668995        -1.617433         0.558548
 O         1.328610        -1.097622         0.515464
 O         4.664826         0.134625         0.133542
 C         3.936114         1.485474         0.486690
 C         2.692884         0.718049         0.886538
 H        -0.528528         0.855468         0.550418
 H         0.253776         2.141260        -0.412790
 H        -0.515631         0.604755        -0.976056
 H         2.206089        -0.967785        -1.864495
 H         2.625109         0.873910        -1.827283
 H         2.619759        -2.549661         0.027287
 H         3.203944        -1.926581         1.502670
 H         4.431861         1.993077         1.364892
 H         3.924222         1.997762        -0.416214
 H         2.543475         0.406105         1.951344
