19
Iteration:  1018charge 0 multiplicity 1
 C         0.102265         0.906669        -0.154011
 C         1.475108         0.320059        -0.052638
 C         2.486272         0.027530        -1.237516
 C         3.404097        -0.418766         0.073571
 C         2.637519        -1.621157         0.547642
 O         1.353978        -1.152432         0.471543
 O         4.721724         0.116929         0.175509
 C         3.968345         1.506441         0.463669
 C         2.661520         0.678119         0.836538
 H        -0.364095         1.162394         0.856855
 H         0.239145         1.782479        -0.801632
 H        -0.526798         0.144909        -0.650364
 H         2.388850        -0.889843        -1.868758
 H         2.793995         0.892182        -1.867025
 H         2.718919        -2.700732         0.072485
 H         2.907862        -1.777159         1.707242
 H         4.462617         2.062750         1.270243
 H         4.087733         2.060222        -0.615645
 H         2.548920         0.553419         1.914058
