19
Iteration:  1950charge 0 multiplicity 1
 C         0.111693         0.806262        -0.235177
 C         1.487593         0.337668        -0.001076
 C         2.390750        -0.020135        -1.220331
 C         3.405249        -0.399680         0.076586
 C         2.600523        -1.589483         0.571395
 O         1.327384        -1.084696         0.467654
 O         4.697696         0.100194         0.143402
 C         4.136061         1.432932         0.486280
 C         2.678625         0.785557         0.843267
 H        -0.542643         0.784103         0.663984
 H         0.268897         1.851371        -0.516441
 H        -0.351440         0.214965        -1.013800
 H         1.803070        -0.745561        -1.865523
 H         2.782095         0.733014        -1.808676
 H         2.574175        -2.577918         0.082745
 H         3.000495        -1.836564         1.589023
 H         4.799215         1.787657         1.425006
 H         4.115356         2.200898        -0.328918
 H         2.713380         0.614553         1.840818
