19
Iteration:  4970
 C         0.212287         1.027372        -0.071538
 C         1.521758         0.286184        -0.052571
 C         2.458477        -0.065379        -1.211082
 C         3.351348        -0.431852         0.069709
 C         2.653042        -1.691345         0.597787
 O         1.350431        -1.116802         0.499300
 O         4.648079         0.100687         0.095880
 C         3.946593         1.408215         0.412004
 C         2.700550         0.739236         0.770452
 H         0.070632         1.414145         0.931950
 H         0.371251         1.981667        -0.559060
 H        -0.561455         0.512652        -0.487726
 H         2.093062        -0.806248        -1.877736
 H         2.701821         0.889601        -1.836166
 H         2.775624        -2.463071        -0.150696
 H         2.926403        -1.747795         1.661651
 H         4.639268         1.690335         1.235414
 H         3.820651         2.171712        -0.356438
 H         2.347180         0.846800         1.832743
