19
Iteration:   180
 C         0.129267         0.845459        -0.230711
 C         1.474046         0.271805        -0.039898
 C         2.452662         0.009271        -1.112530
 C         3.319109        -0.340874         0.017066
 C         2.719935        -1.635389         0.529808
 O         1.304029        -1.170943         0.567025
 O         4.672282         0.118435         0.025205
 C         4.135766         1.401032         0.560087
 C         2.629097         0.899092         0.815976
 H        -0.516141         0.522969         0.585760
 H        -0.083938         1.872393        -0.408058
 H        -0.163372         0.139569        -0.979823
 H         2.163253        -0.729001        -1.979186
 H         2.769355         1.011948        -1.641895
 H         2.737190        -2.452703        -0.241399
 H         3.009597        -1.936867         1.564728
 H         4.663810         1.614247         1.539272
 H         4.234078         2.205202        -0.112589
 H         2.534375         0.699084         1.815602
