19
Iteration:   606
 C         0.032737         0.826104        -0.191256
 C         1.461116         0.352711        -0.091232
 C         2.498668         0.039599        -1.179755
 C         3.375331        -0.361330         0.024899
 C         2.710757        -1.677254         0.499258
 O         1.302732        -1.106997         0.473841
 O         4.745175         0.092809         0.186582
 C         4.084182         1.472515         0.475334
 C         2.586651         0.769846         0.880086
 H        -0.476515         0.882137         0.795339
 H        -0.040779         1.743388        -0.726081
 H        -0.524043        -0.047121        -0.556158
 H         2.277063        -0.905783        -1.697081
 H         3.076346         0.724051        -1.744806
 H         2.969546        -2.612698        -0.128311
 H         2.997394        -1.917713         1.541114
 H         4.623516         1.928760         1.357655
 H         4.145302         2.012278        -0.377147
 H         2.479936         0.867370         2.054736
