19
Iteration:  4246
 C         0.188704         0.991430        -0.139725
 C         1.478312         0.264727        -0.022265
 C         2.458899        -0.116061        -1.168659
 C         3.367102        -0.453649         0.000555
 C         2.693274        -1.669465         0.566667
 O         1.296114        -1.046183         0.522400
 O         4.737792         0.097295         0.121984
 C         3.970734         1.496002         0.364539
 C         2.672115         0.722210         0.873043
 H        -0.289322         1.054992         0.765876
 H         0.404326         2.003896        -0.203752
 H        -0.474387         0.654705        -0.910106
 H         2.021946        -1.037427        -1.565591
 H         2.696509         0.586847        -1.938566
 H         2.698374        -2.425455        -0.134252
 H         2.777663        -1.898895         1.568093
 H         4.452065         2.111640         1.122794
 H         3.796528         2.193931        -0.512382
 H         2.716602         0.622187         1.904658
