19
Iteration:   926
 C         0.137119         0.835712        -0.262593
 C         1.538232         0.285188        -0.061307
 C         2.412317         0.030106        -1.164943
 C         3.346534        -0.383786         0.111809
 C         2.732123        -1.626296         0.517462
 O         1.296857        -1.162024         0.562506
 O         4.657175         0.179203         0.085436
 C         4.062406         1.353218         0.483809
 C         2.625605         0.805632         0.881871
 H        -0.550577         0.727996         0.480764
 H         0.228025         1.931075        -0.485936
 H        -0.203851         0.435792        -1.223520
 H         2.146070        -0.700226        -1.903114
 H         2.976902         0.894139        -1.592779
 H         2.852043        -2.464644        -0.177434
 H         3.078178        -1.946008         1.537429
 H         4.572720         1.757791         1.436766
 H         4.202544         2.131800        -0.415749
 H         2.465891         0.867793         2.003099
