19
Iteration:  4839charge 0 multiplicity 1
 C         0.156748         1.078169        -0.069685
 C         1.469572         0.307523        -0.070825
 C         2.512523        -0.092266        -1.218903
 C         3.403300        -0.437126         0.069648
 C         2.722716        -1.665926         0.571856
 O         1.343172        -1.110964         0.533534
 O         4.633999         0.094866         0.037393
 C         4.006263         1.364503         0.466435
 C         2.604500         0.788205         0.798511
 H        -0.257148         1.256189         0.970930
 H         0.142649         2.045043        -0.638054
 H        -0.622233         0.427569        -0.436763
 H         2.195042        -0.916683        -1.838255
 H         2.888505         0.896632        -1.643472
 H         2.815079        -2.413260        -0.242743
 H         2.872110        -2.135284         1.564071
 H         4.700230         1.722242         1.311574
 H         4.055449         1.830709        -0.530241
 H         2.357309         0.934507         1.877233
