19
Iteration:  4175
 C         0.094891         0.889096        -0.208811
 C         1.493608         0.357530        -0.059903
 C         2.401976        -0.062352        -1.210290
 C         3.357351        -0.377862         0.015837
 C         2.665966        -1.682539         0.605192
 O         1.226501        -1.098650         0.595545
 O         4.747545         0.092032         0.079112
 C         4.110975         1.469456         0.473012
 C         2.753301         0.751834         0.813728
 H        -0.327440         1.303739         0.774491
 H         0.152288         1.936139        -0.642349
 H        -0.562497         0.159912        -0.737629
 H         1.949728        -0.896272        -1.776357
 H         2.765637         0.770523        -1.884869
 H         2.594028        -2.514390        -0.117794
 H         3.100695        -1.845168         1.558247
 H         4.607097         1.908879         1.367870
 H         4.360062         2.149137        -0.309472
 H         2.527863         0.499863         1.924962
