19
Iteration:   948
 C         0.124729         0.958991        -0.231400
 C         1.490682         0.229079        -0.080887
 C         2.493346        -0.047009        -1.186453
 C         3.364816        -0.426579        -0.026104
 C         2.692732        -1.699238         0.533387
 O         1.352797        -1.059488         0.580517
 O         4.696767         0.171874         0.116550
 C         3.937336         1.525845         0.575278
 C         2.704056         0.628567         0.838790
 H        -0.410207         0.980768         0.642830
 H         0.152672         1.953478        -0.714621
 H        -0.370592         0.389564        -1.016121
 H         2.203846        -0.803166        -1.917840
 H         2.863941         0.899531        -1.631947
 H         2.545184        -2.656960         0.073412
 H         3.102830        -1.858208         1.564681
 H         4.524976         2.106289         1.368531
 H         3.755173         2.249205        -0.398998
 H         2.439448         0.414258         1.904790
