19
Iteration:  1801charge 0 multiplicity 1
 C        -0.006029         0.876502        -0.218055
 C         1.464377         0.361993        -0.099251
 C         2.432679        -0.036015        -1.238290
 C         3.411975        -0.385592         0.101733
 C         2.644445        -1.676001         0.498017
 O         1.345506        -1.070513         0.551062
 O         4.722012         0.093471         0.194631
 C         4.096257         1.445329         0.515632
 C         2.758562         0.808206         0.817323
 H        -0.590974         1.019088         0.767539
 H        -0.154090         1.832229        -0.819078
 H        -0.440940         0.060719        -0.953937
 H         2.111555        -1.053669        -1.722773
 H         2.743744         0.677387        -1.994872
 H         2.547689        -2.575171        -0.245817
 H         3.088442        -1.964859         1.490095
 H         4.424780         1.711713         1.437982
 H         4.236047         2.128133        -0.300487
 H         2.620760         0.580384         1.986386
