19
Iteration:  2532
 C         0.072358         0.853358        -0.321704
 C         1.439087         0.359012        -0.095635
 C         2.400836        -0.087468        -1.208794
 C         3.334743        -0.380801         0.088096
 C         2.726598        -1.619172         0.608781
 O         1.290965        -1.095386         0.627026
 O         4.656246         0.078703        -0.029622
 C         4.173992         1.395644         0.618420
 C         2.748007         0.824636         0.826808
 H        -0.218056         1.368801         0.581801
 H         0.122452         1.770460        -1.016489
 H        -0.618240         0.108957        -0.623545
 H         2.061564        -0.856283        -1.919921
 H         2.878519         0.819687        -1.667879
 H         2.612201        -2.528091         0.012418
 H         2.961721        -1.723810         1.701062
 H         4.807091         1.744062         1.561925
 H         4.231234         2.188786        -0.202417
 H         2.545772         0.739031         1.917243
