19
Iteration:  1207charge 0 multiplicity 1
 C         0.151666         0.793887        -0.295776
 C         1.504335         0.337479        -0.018852
 C         2.512121         0.009868        -1.164117
 C         3.288170        -0.396270         0.074750
 C         2.612415        -1.609226         0.589737
 O         1.348047        -1.133631         0.565940
 O         4.648784         0.148883         0.042004
 C         4.100236         1.417563         0.499029
 C         2.668135         0.769843         0.852580
 H        -0.442379         0.967038         0.524637
 H         0.275244         1.797339        -0.690710
 H        -0.515717         0.247245        -0.878900
 H         2.179857        -0.614362        -1.972950
 H         2.838612         0.873295        -1.597654
 H         2.885496        -2.313425        -0.266177
 H         2.801537        -1.947079         1.601554
 H         4.526960         1.676103         1.537420
 H         4.204924         2.125982        -0.314348
 H         2.539688         0.575481         1.979261
