19
Iteration:   275
 C         0.159701         0.993873        -0.196831
 C         1.507441         0.305199         0.025845
 C         2.460254        -0.018564        -1.216326
 C         3.428653        -0.405265         0.008152
 C         2.676418        -1.721468         0.535679
 O         1.336496        -1.156051         0.502526
 O         4.694812         0.234621         0.146791
 C         3.914798         1.471834         0.478320
 C         2.676946         0.633344         0.847905
 H        -0.311413         1.348928         0.701501
 H         0.205147         1.972625        -0.861277
 H        -0.571018         0.191708        -0.528134
 H         2.191683        -0.811136        -1.773496
 H         2.734387         0.721140        -1.949861
 H         2.694194        -2.612113        -0.107171
 H         2.916574        -1.950327         1.554580
 H         4.420068         1.962268         1.393870
 H         3.907249         2.011147        -0.483561
 H         2.713413         0.313211         1.969659
