19
Iteration:  4466
 C         0.146061         0.925501        -0.123634
 C         1.449959         0.336511        -0.052193
 C         2.439888        -0.052722        -1.160952
 C         3.369965        -0.417300         0.026289
 C         2.651686        -1.583595         0.533826
 O         1.314541        -1.022732         0.538028
 O         4.699093         0.075800         0.118306
 C         4.115923         1.393194         0.407169
 C         2.687404         0.745277         0.806300
 H        -0.397296         0.974951         0.867859
 H        -0.096206         1.718021        -0.868938
 H        -0.323563        -0.016971        -0.572487
 H         2.120199        -0.952736        -1.707400
 H         2.636782         0.878241        -1.760373
 H         2.531268        -2.587079        -0.031236
 H         3.070422        -1.864551         1.583752
 H         4.483724         1.694787         1.409116
 H         4.047017         2.119579        -0.459587
 H         2.671460         0.540419         1.891444
