19
Iteration:  2786
 C         0.107384         0.937156        -0.230788
 C         1.484906         0.339904         0.000290
 C         2.425930        -0.009069        -1.141211
 C         3.426032        -0.434560         0.065040
 C         2.622656        -1.662537         0.643548
 O         1.310352        -1.067609         0.564148
 O         4.733250         0.116559         0.019793
 C         4.027601         1.376823         0.393561
 C         2.747695         0.751020         0.848589
 H        -0.697126         0.815853         0.500131
 H         0.030851         1.961851        -0.463562
 H        -0.296412         0.267940        -1.083329
 H         2.137858        -0.940837        -1.807657
 H         2.786686         0.787298        -1.743066
 H         2.677222        -2.560053        -0.029639
 H         2.791095        -1.761449         1.761168
 H         4.584768         1.890505         1.273454
 H         4.005199         1.946627        -0.509370
 H         2.470565         0.735812         1.908372
