19
Iteration:  1145charge 0 multiplicity 1
 C         0.187192         0.959405        -0.137714
 C         1.537995         0.261623        -0.095161
 C         2.522219        -0.113413        -1.208383
 C         3.284359        -0.374833         0.067531
 C         2.716862        -1.763664         0.543019
 O         1.330804        -1.127592         0.498516
 O         4.665055         0.149697         0.197641
 C         3.963604         1.493877         0.463567
 C         2.631544         0.821050         0.765824
 H         0.159340         1.253606         0.966696
 H         0.406341         1.933941        -0.702042
 H        -0.668404         0.318525        -0.540834
 H         2.253324        -0.933206        -1.964405
 H         2.634109         0.898083        -1.624887
 H         2.957653        -2.553903        -0.198763
 H         2.778045        -2.140391         1.534587
 H         4.283097         2.112304         1.306625
 H         4.002010         2.096748        -0.416558
 H         2.424340         0.759024         1.813870
