19
Iteration:  3621charge 0 multiplicity 1
 C         0.258434         1.115033        -0.154559
 C         1.514447         0.270878        -0.067797
 C         2.484355        -0.151929        -1.206539
 C         3.335666        -0.505709         0.043873
 C         2.629440        -1.662121         0.590915
 O         1.343857        -1.101565         0.570208
 O         4.705174         0.219757         0.092120
 C         3.910863         1.401847         0.371751
 C         2.668457         0.683934         0.870926
 H        -0.199540         1.094320         0.860743
 H         0.411132         2.112489        -0.495807
 H        -0.456084         0.642619        -0.824976
 H         2.090668        -0.879099        -1.839645
 H         2.882375         0.688550        -1.711530
 H         2.640485        -2.573203        -0.083195
 H         2.988929        -1.948270         1.612201
 H         4.122602         2.015377         1.275635
 H         3.873547         2.208090        -0.569435
 H         2.533529         0.432900         1.892807
