19
Iteration:  1928charge 0 multiplicity 1
 C         0.043204         0.871984        -0.268339
 C         1.463649         0.328150         0.008683
 C         2.516569        -0.010799        -1.220249
 C         3.303517        -0.371353         0.085913
 C         2.705959        -1.643848         0.558259
 O         1.283238        -1.053813         0.532444
 O         4.704893         0.059997         0.123826
 C         4.112903         1.409412         0.479859
 C         2.702370         0.771602         0.837416
 H        -0.506794         0.591660         0.659872
 H         0.061725         1.940006        -0.348946
 H        -0.397043         0.271858        -1.032765
 H         2.249693        -0.779280        -1.999476
 H         2.846147         0.838096        -1.717814
 H         2.727041        -2.558752        -0.064631
 H         3.090768        -1.948918         1.561650
 H         4.580313         2.066623         1.368017
 H         4.104281         2.047302        -0.456913
 H         2.544011         0.681606         1.851048
