19
Iteration:  3556charge 0 multiplicity 1
 C         0.087583         0.792603        -0.205478
 C         1.504904         0.385770        -0.094690
 C         2.460748        -0.012225        -1.165162
 C         3.313145        -0.407150         0.010807
 C         2.623726        -1.657938         0.632884
 O         1.307545        -0.964172         0.505444
 O         4.717431         0.057538         0.060980
 C         4.133741         1.421059         0.444098
 C         2.686186         0.743447         0.925427
 H        -0.188568         0.635861         0.856817
 H        -0.167640         1.695756        -0.673760
 H        -0.467249         0.057285        -0.764630
 H         1.985954        -0.625974        -1.861632
 H         2.975895         0.799320        -1.650993
 H         2.445413        -2.683075         0.134646
 H         2.999609        -1.721918         1.697129
 H         4.794360         1.832119         1.203522
 H         4.110774         2.121139        -0.447764
 H         2.681176         0.723274         1.962323
