19
Iteration:  4304charge 0 multiplicity 1
 C         0.084524         0.817657        -0.229096
 C         1.408911         0.343304        -0.034360
 C         2.449287        -0.047245        -1.166526
 C         3.312287        -0.358335         0.028112
 C         2.671359        -1.550055         0.589993
 O         1.297179        -1.034843         0.598007
 O         4.702138         0.098499         0.015724
 C         4.212066         1.338412         0.432751
 C         2.723442         0.777818         0.870329
 H        -0.262916         0.996836         0.814781
 H         0.154132         1.656784        -0.925438
 H        -0.622347         0.147642        -0.619307
 H         2.205170        -0.888191        -1.883275
 H         2.819128         0.951266        -1.714363
 H         2.750881        -2.474071        -0.007181
 H         2.723920        -2.093026         1.557653
 H         4.575493         1.643717         1.412270
 H         4.042401         2.166688        -0.254984
 H         2.573413         0.530558         2.000039
