19
Iteration:  2021charge 0 multiplicity 1
 C         0.196109         1.053993        -0.213249
 C         1.499711         0.282106        -0.049727
 C         2.414005        -0.131146        -1.144412
 C         3.343007        -0.440975         0.029750
 C         2.683699        -1.675391         0.550469
 O         1.301171        -1.149439         0.466504
 O         4.738747         0.223828         0.173690
 C         4.015948         1.492614         0.436590
 C         2.658381         0.624406         0.892426
 H        -0.215905         1.352692         0.734697
 H         0.406169         2.000856        -0.796171
 H        -0.656145         0.483796        -0.585754
 H         1.913088        -0.922841        -1.729328
 H         2.872602         0.627143        -1.849206
 H         2.913459        -2.499425        -0.163023
 H         2.881608        -2.065017         1.535735
 H         4.393884         2.249612         1.212302
 H         3.958378         1.995882        -0.600272
 H         2.455566         0.626780         2.074302
