19
Iteration:  3953
 C         0.150849         1.076557        -0.114971
 C         1.499298         0.312315        -0.078079
 C         2.452801        -0.066408        -1.233192
 C         3.375063        -0.421842         0.098129
 C         2.714909        -1.700847         0.633337
 O         1.356716        -1.081664         0.514945
 O         4.635293         0.067645         0.127946
 C         4.051256         1.373716         0.369596
 C         2.631464         0.790932         0.826363
 H        -0.197043         0.980387         0.942944
 H         0.228978         2.079751        -0.655801
 H        -0.618341         0.554322        -0.826502
 H         2.172069        -1.007598        -1.855890
 H         2.831679         0.714738        -1.964071
 H         2.809351        -2.523916        -0.143881
 H         2.968716        -2.088342         1.639087
 H         4.492196         1.787718         1.254950
 H         3.977519         2.050483        -0.470769
 H         2.246129         0.812829         1.878319
