19
Iteration:  3931charge 0 multiplicity 1
 C         0.273548         1.040539        -0.119867
 C         1.497874         0.245401        -0.032443
 C         2.454962        -0.029151        -1.144949
 C         3.371214        -0.462101         0.033458
 C         2.624891        -1.639316         0.636059
 O         1.263527        -1.165163         0.496327
 O         4.696705         0.107519         0.162321
 C         3.913216         1.469440         0.331069
 C         2.714182         0.717669         0.790492
 H        -0.210959         1.091175         0.889503
 H         0.725752         2.044934        -0.446745
 H        -0.484582         0.855305        -0.977876
 H         2.102209        -0.776290        -1.952270
 H         2.881314         0.813967        -1.743292
 H         2.796253        -2.567914        -0.032543
 H         2.920573        -1.932150         1.656463
 H         4.489355         2.074321         1.011373
 H         3.905813         1.881145        -0.666668
 H         2.596791         0.829810         1.898095
