19
Iteration:  3946
 C         0.222530         1.087322        -0.121630
 C         1.493815         0.295340        -0.071623
 C         2.426376        -0.078380        -1.233102
 C         3.353807        -0.424107         0.142017
 C         2.713767        -1.749885         0.580555
 O         1.378160        -1.084802         0.500470
 O         4.705607         0.049677         0.127674
 C         3.992911         1.386788         0.335650
 C         2.560604         0.839488         0.833900
 H        -0.199497         1.042593         0.887804
 H         0.327884         2.093699        -0.465870
 H        -0.432994         0.583973        -0.741987
 H         2.092202        -0.873356        -1.859935
 H         2.786043         0.826301        -1.664897
 H         2.709498        -2.772741         0.063741
 H         2.898584        -1.794471         1.685013
 H         4.352948         1.927995         1.237026
 H         3.945638         2.060807        -0.594127
 H         2.307031         0.694201         1.907707
