19
Iteration:  3149charge 0 multiplicity 1
 C         0.199455         0.925460        -0.139947
 C         1.469458         0.284906         0.025174
 C         2.382037        -0.052949        -1.230249
 C         3.388183        -0.437151         0.113772
 C         2.691296        -1.649083         0.506831
 O         1.222900        -1.100572         0.527928
 O         4.738874         0.111980         0.188904
 C         4.073916         1.404572         0.346217
 C         2.678826         0.797800         0.802576
 H        -0.341720         1.110677         0.756113
 H         0.406776         1.928173        -0.582483
 H        -0.427143         0.417615        -0.787472
 H         2.009808        -0.937979        -1.720801
 H         2.712030         0.751513        -1.792006
 H         2.792121        -2.418342        -0.174371
 H         2.975571        -1.831158         1.496136
 H         4.700375         2.109314         0.991042
 H         3.957729         2.047416        -0.515663
 H         2.515889         0.862290         1.869455
