19
Iteration:  3403charge 0 multiplicity 1
 C         0.009491         0.842460        -0.234359
 C         1.466237         0.281276        -0.067048
 C         2.457614         0.033808        -1.203059
 C         3.395705        -0.413930        -0.065189
 C         2.648923        -1.592146         0.581455
 O         1.272096        -1.045591         0.661834
 O         4.687336         0.036687         0.149592
 C         4.161275         1.406621         0.487566
 C         2.768239         0.810757         0.739630
 H        -0.451710         0.690845         0.867763
 H        -0.099598         1.952107        -0.403441
 H        -0.638869         0.076708        -0.785169
 H         2.315605        -0.685000        -2.030246
 H         2.717296         1.088024        -1.594439
 H         2.578655        -2.444733        -0.145241
 H         3.023496        -1.905424         1.596594
 H         4.479337         2.002477         1.418647
 H         4.296443         2.025266        -0.429810
 H         2.828244         0.426198         1.752743
