19
Iteration:   843charge 0 multiplicity 1
 C         0.154295         1.023508        -0.198654
 C         1.443128         0.254290        -0.122525
 C         2.457902        -0.102793        -1.153737
 C         3.397382        -0.372059         0.049734
 C         2.783216        -1.737615         0.542808
 O         1.304153        -1.207417         0.459711
 O         4.647671         0.217157         0.138369
 C         4.041658         1.475538         0.528681
 C         2.600455         0.775370         0.880766
 H        -0.215849         1.246238         0.918636
 H         0.355655         1.944683        -0.740221
 H        -0.693362         0.445581        -0.598066
 H         2.370938        -0.987396        -1.824941
 H         2.793369         0.796305        -1.627408
 H         2.899850        -2.525253        -0.205479
 H         3.023728        -2.007757         1.548961
 H         4.661871         2.045043         1.231601
 H         4.007349         2.087559        -0.353743
 H         2.317017         0.512374         1.851843
