19
Iteration:  4007
 C         0.085404         0.897076        -0.297288
 C         1.528706         0.359502        -0.053412
 C         2.421903         0.026365        -1.156299
 C         3.299990        -0.432477         0.053219
 C         2.654428        -1.645797         0.585445
 O         1.365287        -1.025185         0.658220
 O         4.647722         0.028546         0.028119
 C         4.111424         1.386807         0.463149
 C         2.708084         0.762432         0.841836
 H        -0.460109         1.113620         0.663452
 H         0.048488         1.901502        -0.821533
 H        -0.441261        -0.017509        -0.739059
 H         2.138980        -0.523692        -2.114671
 H         3.062612         0.767262        -1.659510
 H         2.767607        -2.553777         0.038357
 H         3.040712        -1.885111         1.541915
 H         4.588431         1.724505         1.364115
 H         4.103913         2.158779        -0.274272
 H         2.511449         0.524201         1.878893
