19
Iteration:  2986
 C         0.122520         0.900888        -0.166200
 C         1.456294         0.293853        -0.132024
 C         2.472228        -0.010208        -1.172911
 C         3.277168        -0.409413         0.071241
 C         2.672629        -1.628072         0.654875
 O         1.337410        -1.123033         0.521942
 O         4.595919         0.046304         0.035254
 C         4.160099         1.389620         0.433099
 C         2.716588         0.844524         0.867558
 H        -0.301658         0.966598         0.804403
 H         0.321605         1.956967        -0.621806
 H        -0.608842         0.463803        -0.814859
 H         2.267391        -0.877955        -1.794401
 H         2.749368         0.936404        -1.666749
 H         2.948649        -2.542565         0.018329
 H         3.082495        -1.644116         1.670173
 H         4.684828         1.899966         1.293106
 H         4.191072         2.106545        -0.292092
 H         2.485349         0.890318         1.913669
