19
Iteration:  1521
 C         0.058359         0.895943        -0.229509
 C         1.480564         0.398684        -0.082866
 C         2.441456        -0.036336        -1.220973
 C         3.391289        -0.428920         0.022094
 C         2.674885        -1.684934         0.553253
 O         1.386199        -1.097189         0.544109
 O         4.680155         0.099342         0.222451
 C         4.049826         1.456096         0.504684
 C         2.688098         0.767535         0.760924
 H        -0.164585         1.156573         0.800838
 H        -0.221706         1.854240        -0.694246
 H        -0.575895         0.165809        -0.674171
 H         2.102736        -1.013583        -1.785851
 H         2.889877         0.685046        -1.832287
 H         2.812657        -2.457579        -0.166207
 H         2.878192        -1.896381         1.632778
 H         4.600402         1.829229         1.392123
 H         4.128787         2.226833        -0.219672
 H         2.367001         0.510041         1.688719
