19
Iteration:   968
 C         0.186347         0.953669        -0.166260
 C         1.471065         0.257218        -0.029026
 C         2.491929        -0.088697        -1.274623
 C         3.421270        -0.417222         0.033700
 C         2.695853        -1.678803         0.587898
 O         1.258063        -1.111509         0.507048
 O         4.731718         0.292536         0.165297
 C         3.936287         1.400843         0.470113
 C         2.668473         0.665750         0.810625
 H        -0.023899         1.244708         0.819795
 H         0.335928         1.900575        -0.789825
 H        -0.616596         0.417498        -0.707595
 H         2.127553        -0.913767        -1.841817
 H         2.770350         0.808302        -1.892944
 H         2.813406        -2.428675        -0.118890
 H         2.816292        -2.097085         1.522835
 H         4.322014         1.894419         1.463804
 H         3.935259         2.243385        -0.259212
 H         2.518930         0.432118         1.954003
