19
Iteration:   507charge 0 multiplicity 1
 C         0.130138         0.876352        -0.161305
 C         1.472777         0.266217        -0.071577
 C         2.495837         0.004084        -1.192397
 C         3.377391        -0.398545         0.050799
 C         2.653682        -1.602101         0.565345
 O         1.351636        -1.124292         0.490775
 O         4.720825         0.171215         0.198300
 C         3.986588         1.441057         0.421747
 C         2.621513         0.680141         0.780775
 H        -0.356524         0.940979         0.894554
 H         0.325339         1.877176        -0.491771
 H        -0.513682         0.369258        -0.884384
 H         2.417610        -0.593290        -2.020308
 H         2.893006         0.951843        -1.583394
 H         2.669077        -2.528320        -0.113359
 H         3.009701        -1.831265         1.592518
 H         4.239551         1.871272         1.420276
 H         3.983824         2.130841        -0.358030
 H         2.607321         0.362977         1.893689
