19
Iteration:   379
 C         0.163975         1.026128        -0.155608
 C         1.470739         0.301351        -0.112161
 C         2.577539        -0.061914        -1.215159
 C         3.309848        -0.427482         0.035717
 C         2.770450        -1.758020         0.524108
 O         1.272202        -1.179688         0.575010
 O         4.680831         0.235676         0.218298
 C         3.958510         1.467823         0.396931
 C         2.647397         0.697009         0.791857
 H        -0.297025         0.660171         0.781290
 H         0.224339         2.083410        -0.155074
 H        -0.486681         0.669787        -0.953070
 H         2.283246        -0.967112        -1.867217
 H         2.877611         0.938965        -1.537060
 H         2.830113        -2.584886        -0.138340
 H         3.209074        -1.987428         1.489254
 H         4.298328         2.112640         1.247920
 H         3.826476         2.217382        -0.450278
 H         2.492528         0.530497         1.799531
