19
Iteration:  3315charge 0 multiplicity 1
 C         0.256311         1.018855        -0.082016
 C         1.493967         0.267705        -0.089333
 C         2.463220        -0.112325        -1.271382
 C         3.383078        -0.478955        -0.003118
 C         2.670869        -1.597540         0.589147
 O         1.290237        -1.111805         0.600428
 O         4.630401         0.192328         0.117894
 C         3.961236         1.430774         0.476500
 C         2.678660         0.647413         0.721668
 H        -0.046050         1.160327         1.012180
 H         0.436727         2.061758        -0.470677
 H        -0.429487         0.582554        -0.829706
 H         2.207515        -0.943662        -1.960892
 H         2.930378         0.770588        -1.795594
 H         2.671458        -2.573228         0.112846
 H         3.033712        -1.701354         1.613619
 H         4.389749         1.989572         1.449498
 H         4.106552         2.066890        -0.416990
 H         2.365832         0.692341         1.789986
