19
Iteration:  2951
 C         0.024237         0.852767        -0.263351
 C         1.507690         0.339283        -0.018888
 C         2.418304        -0.024304        -1.169840
 C         3.316332        -0.489600        -0.039504
 C         2.627455        -1.629358         0.602089
 O         1.311284        -0.982359         0.636050
 O         4.703965         0.138786         0.065415
 C         4.134144         1.437558         0.505092
 C         2.847252         0.676419         0.784336
 H        -0.595783         0.735098         0.622232
 H        -0.013812         1.964057        -0.438071
 H        -0.460955         0.258901        -1.100591
 H         2.034589        -0.778276        -1.828586
 H         2.821626         0.785605        -1.868148
 H         2.414965        -2.650732         0.120073
 H         3.126890        -1.879054         1.592935
 H         4.653310         1.779938         1.479331
 H         4.008693         2.173885        -0.332534
 H         2.555534         0.668355         1.828475
