19
Iteration:  1244
 C         0.088694         0.949161        -0.182405
 C         1.468369         0.284817        -0.113417
 C         2.443363        -0.076772        -1.209045
 C         3.390579        -0.412481         0.039265
 C         2.669848        -1.644547         0.571029
 O         1.297660        -1.066423         0.543669
 O         4.723679         0.188389         0.214911
 C         4.028293         1.421755         0.456345
 C         2.690911         0.687838         0.788721
 H        -0.509566         0.664631         0.745715
 H         0.220475         2.025463        -0.328740
 H        -0.296776         0.536147        -1.141121
 H         2.034049        -0.927250        -1.769539
 H         2.898641         0.774177        -1.818527
 H         2.932180        -2.481450        -0.117113
 H         3.121366        -1.940440         1.549147
 H         4.512737         1.923977         1.265575
 H         4.023535         2.144010        -0.384798
 H         2.648021         0.325415         1.757051
