19
Iteration:  2780
 C         0.074465         0.945497        -0.180302
 C         1.460874         0.293667        -0.009907
 C         2.522496        -0.077327        -1.159221
 C         3.382815        -0.429905         0.052533
 C         2.645072        -1.677498         0.664688
 O         1.291050        -1.055037         0.560567
 O         4.751617         0.123054         0.028854
 C         4.031754         1.397596         0.385676
 C         2.698294         0.762809         0.824022
 H        -0.641158         0.836315         0.649325
 H         0.199606         2.026605        -0.571810
 H        -0.358697         0.588871        -1.102486
 H         1.958942        -0.644807        -1.864478
 H         2.919802         0.793805        -1.766535
 H         2.728023        -2.555745         0.028489
 H         2.895498        -1.891487         1.683080
 H         4.525927         1.797601         1.279745
 H         4.050778         2.129500        -0.518702
 H         2.541842         0.759996         1.921245
