19
Iteration:  4389charge 0 multiplicity 1
 C         0.209060         1.031362        -0.150935
 C         1.527514         0.352644        -0.047037
 C         2.404253        -0.127614        -1.134898
 C         3.384940        -0.425771         0.051256
 C         2.671900        -1.666211         0.567458
 O         1.322943        -1.118013         0.521489
 O         4.668545         0.192318         0.067195
 C         4.029016         1.386915         0.377452
 C         2.704211         0.658259         0.853804
 H        -0.300405         1.095407         0.835929
 H         0.362935         2.119212        -0.255763
 H        -0.410853         0.597842        -0.995780
 H         1.945225        -1.009181        -1.625759
 H         2.787486         0.742219        -1.829713
 H         2.636262        -2.740878         0.086432
 H         2.844311        -1.954393         1.684244
 H         4.286206         1.992902         1.320247
 H         3.822346         2.064240        -0.606307
 H         2.287608         0.896072         1.855641
