19
Iteration:  2697charge 0 multiplicity 1
 C         0.172967         0.885953        -0.236648
 C         1.492754         0.261872        -0.044502
 C         2.446128         0.055571        -1.112362
 C         3.351815        -0.373170         0.067602
 C         2.647748        -1.684057         0.580052
 O         1.281495        -1.085598         0.594166
 O         4.684067         0.065362         0.021348
 C         4.018803         1.405874         0.381967
 C         2.699356         0.787500         0.876397
 H        -0.191684         1.457020         0.640482
 H         0.337845         1.575170        -1.026606
 H        -0.412874         0.027351        -0.491995
 H         2.320388        -0.804310        -1.744336
 H         2.947467         0.918703        -1.576354
 H         2.683353        -2.519496        -0.172658
 H         2.858294        -1.971078         1.684002
 H         4.557115         1.821770         1.310810
 H         4.160653         2.112289        -0.418122
 H         2.619449         1.138095         1.892814
