19
Iteration:  4898charge 0 multiplicity 1
 C         0.052125         0.920623        -0.231977
 C         1.461584         0.305504        -0.013094
 C         2.476170         0.024930        -1.151367
 C         3.386524        -0.447902         0.011240
 C         2.692728        -1.665042         0.549815
 O         1.317139        -1.034102         0.621430
 O         4.631544         0.033450         0.041311
 C         4.088043         1.374016         0.437437
 C         2.725971         0.807647         0.891584
 H        -0.368852         0.768026         0.791118
 H         0.095866         2.035428        -0.290381
 H        -0.489637         0.402132        -1.188739
 H         1.932847        -0.689369        -1.913199
 H         2.979300         0.785683        -1.795690
 H         2.703506        -2.329597        -0.331837
 H         2.957890        -2.031583         1.551558
 H         4.646534         1.885918         1.206031
 H         4.253170         2.073226        -0.435822
 H         2.798929         0.780332         1.980171
