19
Iteration:  2188charge 0 multiplicity 1
 C         0.151839         0.965985        -0.165759
 C         1.462598         0.226216        -0.125129
 C         2.541338        -0.033206        -1.276796
 C         3.352656        -0.417091         0.080918
 C         2.663784        -1.655463         0.596058
 O         1.349221        -1.081591         0.596504
 O         4.688160         0.131621         0.129556
 C         3.999374         1.420442         0.452603
 C         2.616088         0.708051         0.775279
 H        -0.018975         1.277027         0.893112
 H         0.284844         1.869401        -0.702795
 H        -0.743527         0.422472        -0.410414
 H         2.350002        -0.742683        -2.121309
 H         2.882977         0.934046        -1.712914
 H         2.651641        -2.577687         0.024876
 H         3.004575        -1.765588         1.605465
 H         4.459088         1.798386         1.308656
 H         4.016019         2.315485        -0.275358
 H         2.352578         0.594151         1.823226
