19
Iteration:  2866charge 0 multiplicity 1
 C         0.193274         0.985371        -0.040906
 C         1.545763         0.287972        -0.030962
 C         2.498821        -0.190960        -1.243571
 C         3.305352        -0.427272        -0.034898
 C         2.653582        -1.624939         0.646289
 O         1.331221        -1.031365         0.434962
 O         4.671678         0.144945         0.144378
 C         3.974001         1.440508         0.407946
 C         2.687225         0.706651         0.779257
 H        -0.199612         1.330410         0.898826
 H         0.353908         1.929065        -0.700085
 H        -0.529555         0.272318        -0.384552
 H         2.044170        -1.042069        -1.686614
 H         2.682022         0.740851        -1.893032
 H         2.627921        -2.659760         0.268651
 H         2.989943        -1.759323         1.671161
 H         4.421548         1.935488         1.353197
 H         4.075995         2.305793        -0.340931
 H         2.482051         0.511555         1.835366
