19
Iteration:  2809charge 0 multiplicity 1
 C         0.157244         0.798436        -0.294996
 C         1.495257         0.329683         0.028409
 C         2.422430        -0.013852        -1.172503
 C         3.286733        -0.374694         0.009288
 C         2.667969        -1.659977         0.590185
 O         1.290987        -1.012210         0.612930
 O         4.631241         0.071037         0.079360
 C         4.127789         1.434993         0.378581
 C         2.797130         0.769161         0.943379
 H        -0.636482         0.847898         0.438825
 H         0.199338         1.826497        -0.647325
 H        -0.278945         0.087271        -1.104317
 H         1.656367        -0.551949        -1.809441
 H         2.822881         0.824384        -1.751470
 H         2.688066        -2.451867        -0.201326
 H         3.026128        -1.833993         1.650016
 H         4.850456         1.889718         1.204326
 H         4.039709         2.033204        -0.553669
 H         2.711064         0.494196         2.013142
