19
Iteration:   523
 C         0.223459         0.935032        -0.158612
 C         1.557698         0.194695        -0.080005
 C         2.560373         0.023351        -1.247000
 C         3.348855        -0.412934         0.037827
 C         2.704750        -1.743214         0.609500
 O         1.265990        -1.172834         0.469574
 O         4.619770         0.199390         0.101720
 C         3.943852         1.488946         0.530279
 C         2.647292         0.754811         0.892128
 H        -0.266211         0.795266         0.782766
 H         0.292531         2.059344        -0.375785
 H        -0.429738         0.571945        -1.011734
 H         2.185243        -0.814255        -1.993594
 H         2.869442         0.952357        -1.752567
 H         2.843539        -2.616240         0.033042
 H         2.878643        -1.833646         1.685538
 H         4.639270         2.051869         1.152792
 H         3.829643         2.160762        -0.478967
 H         2.437038         0.863345         1.905121
