19
Iteration:   615
 C         0.001187         0.803874        -0.202666
 C         1.443370         0.364062        -0.074447
 C         2.523391        -0.019218        -1.136266
 C         3.364902        -0.360310         0.125726
 C         2.719777        -1.622770         0.497292
 O         1.293526        -1.119817         0.413945
 O         4.688298         0.150383         0.164523
 C         4.163658         1.402638         0.499108
 C         2.669131         0.771065         0.833093
 H        -0.182741         1.013269         0.857505
 H        -0.254954         1.618640        -0.748750
 H        -0.575804         0.006717        -0.526279
 H         2.114102        -0.809597        -1.693526
 H         2.994249         0.720089        -1.811495
 H         2.952353        -2.449524        -0.218044
 H         2.826390        -1.879220         1.543181
 H         4.648521         2.015774         1.292123
 H         3.991732         2.058488        -0.365880
 H         2.442575         0.656902         2.007696
