19
Iteration:  3465
 C         0.222415         1.042515        -0.171643
 C         1.511888         0.246587        -0.019278
 C         2.517101        -0.049342        -1.173617
 C         3.381423        -0.431325         0.125359
 C         2.570127        -1.722681         0.637786
 O         1.268448        -1.137757         0.535965
 O         4.715344         0.262103         0.012126
 C         4.024153         1.428015         0.353888
 C         2.626230         0.668331         0.883200
 H        -0.291059         0.968818         0.745032
 H         0.546754         2.037069        -0.546260
 H        -0.555449         0.657357        -0.833893
 H         2.309877        -0.762185        -1.960331
 H         2.960533         0.773835        -1.718973
 H         2.515922        -2.518647        -0.129860
 H         2.797752        -2.102005         1.688585
 H         4.606820         2.002527         1.136869
 H         3.899487         1.987487        -0.636836
 H         2.516802         0.292353         1.955985
