19
Iteration:  3126
 C         0.052741         0.897895        -0.192310
 C         1.449955         0.336014        -0.084096
 C         2.497012        -0.016638        -1.227795
 C         3.281433        -0.432353         0.143124
 C         2.641111        -1.729323         0.490204
 O         1.376540        -0.998445         0.667921
 O         4.672686         0.061238         0.115983
 C         4.105949         1.408630         0.392176
 C         2.737566         0.799032         0.794226
 H        -0.440938         0.741425         0.726145
 H        -0.128056         1.952703        -0.498896
 H        -0.498791         0.321023        -0.891406
 H         2.274264        -0.877104        -1.776933
 H         2.978354         0.815349        -1.683551
 H         2.713167        -2.412830        -0.275152
 H         2.854508        -2.033074         1.471268
 H         4.625445         1.928080         1.222408
 H         4.291982         2.182700        -0.379715
 H         2.642345         0.728313         1.858123
