19
Iteration:  4083
 C         0.218670         1.074513        -0.061192
 C         1.495139         0.276733        -0.117464
 C         2.540990        -0.186125        -1.228059
 C         3.375487        -0.435634         0.094724
 C         2.681880        -1.594867         0.641022
 O         1.322017        -1.082101         0.480856
 O         4.657508         0.066423         0.087789
 C         3.940886         1.424066         0.402102
 C         2.616549         0.752495         0.806113
 H        -0.068092         1.057783         1.008831
 H         0.457101         2.149608        -0.158424
 H        -0.588569         0.654311        -0.734864
 H         2.295503        -1.079297        -1.918719
 H         2.806616         0.786628        -1.689083
 H         2.610002        -2.417843        -0.105728
 H         2.935593        -1.765099         1.720955
 H         4.450592         2.063199         1.111380
 H         3.868287         1.964205        -0.541351
 H         2.414333         0.607616         1.854190
