19
Iteration:  3059charge 0 multiplicity 1
 C         0.179212         1.079554        -0.199619
 C         1.484569         0.311338        -0.051388
 C         2.422404        -0.104985        -1.158166
 C         3.375358        -0.393933         0.131836
 C         2.672192        -1.758555         0.569625
 O         1.355278        -1.159117         0.568664
 O         4.704518         0.127011         0.031308
 C         3.991734         1.380815         0.416577
 C         2.643438         0.802292         0.807724
 H        -0.133479         1.267395         0.825993
 H         0.314413         2.020288        -0.712888
 H        -0.679895         0.677699        -0.795218
 H         2.207795        -0.923777        -1.780939
 H         2.907292         0.768237        -1.658890
 H         2.726574        -2.626568        -0.035215
 H         2.888459        -1.870132         1.624118
 H         4.456812         1.870511         1.305646
 H         3.970327         2.255965        -0.358409
 H         2.448793         0.778575         1.881906
