19
Iteration:  4429charge 0 multiplicity 1
 C         0.130936         0.888516        -0.219240
 C         1.459753         0.273731        -0.022170
 C         2.407086         0.020722        -1.150733
 C         3.356500        -0.447722         0.014525
 C         2.611442        -1.648617         0.560156
 O         1.298771        -1.045483         0.651431
 O         4.729861         0.104005         0.049147
 C         4.118325         1.370498         0.415212
 C         2.672238         0.781669         0.804038
 H        -0.412834         0.803641         0.726671
 H         0.195060         1.958548        -0.448140
 H        -0.372462         0.254036        -1.044249
 H         2.478105        -0.691506        -1.932026
 H         2.631367         0.996123        -1.577359
 H         2.662592        -2.521022        -0.061722
 H         3.029410        -1.739630         1.536182
 H         4.760634         1.677908         1.232527
 H         4.296930         2.154200        -0.237207
 H         2.483436         0.813555         1.872411
