19
Iteration:  1816charge 0 multiplicity 1
 C         0.070556         0.858961        -0.237754
 C         1.482137         0.307542        -0.072127
 C         2.421908        -0.083121        -1.215779
 C         3.383843        -0.421623         0.003717
 C         2.704332        -1.640826         0.523793
 O         1.293171        -0.998496         0.551454
 O         4.745008         0.133320         0.181283
 C         4.099000         1.418289         0.549728
 C         2.655756         0.716348         0.845223
 H        -0.309752         1.075951         0.766407
 H         0.121188         1.810939        -0.885417
 H        -0.674816         0.143938        -0.595168
 H         2.104570        -0.818169        -1.911592
 H         2.852646         0.797816        -1.851591
 H         2.849085        -2.413765        -0.307955
 H         2.802078        -2.028050         1.543053
 H         4.673776         2.071192         1.305412
 H         4.044282         2.164599        -0.313550
 H         2.407736         0.681983         1.866472
