19
Iteration:   490
 C         0.004980         0.889406        -0.199532
 C         1.425826         0.255357        -0.117892
 C         2.448627         0.000908        -1.230624
 C         3.417970        -0.409219         0.003254
 C         2.807023        -1.691588         0.491945
 O         1.284657        -1.062676         0.512114
 O         4.709748         0.142477         0.247225
 C         4.066713         1.458206         0.539726
 C         2.716637         0.759590         0.855604
 H        -0.416875         0.976570         0.775152
 H        -0.049031         1.895527        -0.706648
 H        -0.655477         0.099240        -0.627375
 H         2.070234        -0.945626        -1.846072
 H         2.735235         0.874959        -1.823111
 H         2.866829        -2.550360        -0.119567
 H         2.968682        -2.005020         1.521412
 H         4.659534         1.977914         1.304893
 H         4.127666         2.016140        -0.492481
 H         2.421809         0.744396         1.854883
