19
Iteration:   558
 C         0.106761         1.040865        -0.241234
 C         1.485839         0.229835         0.030233
 C         2.544622        -0.110308        -1.246110
 C         3.419700        -0.407512         0.043493
 C         2.699877        -1.694485         0.532093
 O         1.313679        -1.179701         0.522860
 O         4.701535         0.211939         0.096744
 C         3.937200         1.493609         0.560020
 C         2.678243         0.718019         0.841952
 H        -0.600466         0.940452         0.533758
 H         0.385205         2.096782        -0.288788
 H        -0.394640         0.676131        -1.114143
 H         2.167132        -0.963306        -1.841193
 H         2.674040         0.781930        -1.945098
 H         2.770308        -2.598021        -0.070601
 H         3.047534        -1.983196         1.533982
 H         4.335138         1.915630         1.443431
 H         3.661102         2.238484        -0.278004
 H         2.538075         0.646099         1.965134
