19
Iteration:  3582charge 0 multiplicity 1
 C         0.092482         0.938420        -0.225802
 C         1.444279         0.297369        -0.023658
 C         2.382078        -0.047039        -1.180025
 C         3.322184        -0.333870         0.074822
 C         2.643094        -1.628226         0.545684
 O         1.344796        -1.104052         0.603926
 O         4.735015         0.093840         0.150428
 C         4.115985         1.362203         0.375582
 C         2.701549         0.770756         0.812647
 H        -0.536693         0.731200         0.643277
 H         0.174805         2.009842        -0.570725
 H        -0.418298         0.411192        -1.081444
 H         2.164853        -0.854240        -1.992871
 H         2.838152         0.834431        -1.708073
 H         2.744907        -2.472410        -0.133028
 H         2.939870        -1.899544         1.542558
 H         4.706757         1.680253         1.220950
 H         4.137686         2.038559        -0.354087
 H         2.838770         0.877942         1.915511
