19
Iteration:  4037charge 0 multiplicity 1
 C         0.174320         0.987305        -0.207971
 C         1.483649         0.229542        -0.023357
 C         2.348996        -0.056430        -1.161544
 C         3.330070        -0.382248         0.072026
 C         2.613086        -1.668833         0.572981
 O         1.311003        -1.081854         0.555853
 O         4.764719         0.113610         0.120295
 C         4.078750         1.401217         0.370777
 C         2.695149         0.756908         0.819791
 H        -0.326861         1.154646         0.733336
 H         0.391763         2.005261        -0.590240
 H        -0.505803         0.462054        -0.912616
 H         1.986368        -0.954035        -1.675074
 H         2.939503         0.742927        -1.671968
 H         2.828136        -2.437337        -0.219460
 H         2.866797        -1.845968         1.671591
 H         4.597341         1.957491         1.233283
 H         4.048472         2.111628        -0.493948
 H         2.563450         0.592499         1.892437
