19
Iteration:  3392charge 0 multiplicity 1
 C         0.076620         0.819630        -0.184051
 C         1.430427         0.290010        -0.041181
 C         2.461113         0.007788        -1.179468
 C         3.318501        -0.396390         0.022308
 C         2.616177        -1.639209         0.545195
 O         1.331336        -0.982986         0.613084
 O         4.731832         0.112823         0.149311
 C         4.140192         1.391082         0.391564
 C         2.709740         0.714964         0.782760
 H        -0.422246         0.856514         0.883646
 H         0.022609         1.814359        -0.729856
 H        -0.507773         0.155003        -0.913451
 H         2.181977        -0.590397        -2.056570
 H         2.916838         0.990669        -1.540775
 H         2.637144        -2.520779        -0.138462
 H         2.841239        -2.006018         1.579443
 H         4.748221         1.704389         1.315784
 H         4.245716         2.151230        -0.419986
 H         2.582108         0.625659         1.876592
