19
Iteration:  2082
 C        -0.037587         0.862885        -0.219503
 C         1.451835         0.327892        -0.069651
 C         2.501464        -0.088124        -1.216303
 C         3.408343        -0.424433        -0.035014
 C         2.703591        -1.590475         0.577633
 O         1.290657        -1.006811         0.525064
 O         4.733028         0.079531         0.136019
 C         4.124870         1.468132         0.520328
 C         2.699713         0.735991         0.861266
 H        -0.418833         0.499881         0.776048
 H        -0.217072         1.904464        -0.328977
 H        -0.514995         0.319320        -1.131486
 H         1.944152        -0.883874        -1.654189
 H         2.683972         0.813972        -1.932069
 H         2.821980        -2.466300        -0.096171
 H         2.963742        -1.941641         1.635992
 H         4.443938         1.630284         1.588542
 H         4.438847         2.089968        -0.257872
 H         2.541696         0.882010         1.892016
