19
Iteration:  2750charge 0 multiplicity 1
 C         0.257264         1.047319        -0.010861
 C         1.504245         0.208349        -0.194682
 C         2.501468        -0.198377        -1.277154
 C         3.348024        -0.383311         0.026075
 C         2.627627        -1.625544         0.628282
 O         1.326913        -1.099673         0.559397
 O         4.685463         0.151007         0.168652
 C         3.975141         1.420913         0.432012
 C         2.621472         0.776890         0.719092
 H        -0.084155         0.987681         1.068105
 H         0.547837         2.082180        -0.365448
 H        -0.430647         0.584653        -0.693149
 H         1.962239        -0.969869        -1.832119
 H         2.574686         0.700116        -1.931590
 H         2.835301        -2.569703         0.120903
 H         2.884608        -1.906820         1.674086
 H         4.421090         1.963538         1.156633
 H         4.002364         2.030800        -0.400568
 H         2.356028         0.828684         1.775863
