19
Iteration:  2332charge 0 multiplicity 1
 C         0.168317         0.919809        -0.170096
 C         1.504966         0.312630        -0.077303
 C         2.512551         0.013132        -1.194904
 C         3.347475        -0.407835         0.140336
 C         2.650309        -1.663977         0.616591
 O         1.287433        -1.120255         0.548172
 O         4.653550         0.120240         0.110263
 C         4.034868         1.428842         0.421921
 C         2.653045         0.703735         0.731690
 H        -0.075949         1.300600         0.787900
 H         0.169704         1.723279        -0.850931
 H        -0.648864         0.208101        -0.427390
 H         2.259222        -0.697326        -2.006380
 H         3.043072         0.904741        -1.682431
 H         2.681364        -2.510674        -0.045951
 H         2.983697        -1.908225         1.647211
 H         4.618102         1.847890         1.213023
 H         4.087483         2.205743        -0.499127
 H         2.652333         0.756129         1.808357
