19
Iteration:  3500charge 0 multiplicity 1
 C         0.253676         1.087145        -0.168649
 C         1.474437         0.298741        -0.022652
 C         2.424605        -0.146665        -1.276711
 C         3.345136        -0.365710         0.032932
 C         2.720821        -1.673667         0.573365
 O         1.350400        -1.143032         0.571326
 O         4.654532         0.127674         0.152988
 C         3.928467         1.451102         0.440027
 C         2.655704         0.693872         0.835962
 H        -0.065415         1.582604         0.742796
 H         0.507137         2.022574        -0.690861
 H        -0.417236         0.478414        -0.756798
 H         1.890146        -0.945096        -1.644455
 H         2.693871         0.656792        -1.962619
 H         2.734819        -2.508981        -0.204541
 H         3.170171        -2.135679         1.526791
 H         4.504844         2.081609         1.143096
 H         4.026456         1.924346        -0.497316
 H         2.528742         0.458650         1.885457
