19
Iteration:  2488charge 0 multiplicity 1
 C         0.076742         0.919430        -0.212458
 C         1.507426         0.291704        -0.147847
 C         2.489661         0.014163        -1.200374
 C         3.345631        -0.437236         0.053994
 C         2.634405        -1.636917         0.637999
 O         1.321338        -1.053521         0.609274
 O         4.672834         0.080883         0.134015
 C         4.064823         1.396604         0.371722
 C         2.729948         0.718974         0.848581
 H        -0.429275         1.107126         0.695091
 H        -0.178222         1.873166        -0.762371
 H        -0.526065         0.182539        -0.672219
 H         2.309116        -0.779703        -1.933599
 H         2.942080         0.950536        -1.516905
 H         2.835244        -2.350312        -0.132023
 H         2.968147        -1.862394         1.675451
 H         4.697772         1.958470         1.203625
 H         4.076368         2.143780        -0.506409
 H         2.503533         0.644515         1.936333
