19
Iteration:  3074
 C         0.124286         1.002617        -0.236393
 C         1.454611         0.300710        -0.041106
 C         2.398703        -0.081299        -1.167644
 C         3.329441        -0.459975         0.007970
 C         2.748268        -1.617472         0.701444
 O         1.298431        -1.125411         0.494201
 O         4.664379         0.121600         0.016463
 C         4.138635         1.414327         0.481127
 C         2.690201         0.759501         0.889917
 H        -0.526969         1.163093         0.637189
 H         0.320628         2.045183        -0.600003
 H        -0.475739         0.440763        -0.914518
 H         1.872277        -0.903415        -1.765449
 H         2.742963         0.776492        -1.703386
 H         2.795707        -2.492450        -0.057808
 H         2.982001        -1.867606         1.762142
 H         4.831155         1.827707         1.350622
 H         4.231890         2.113187        -0.365733
 H         2.499483         0.643693         1.955884
