19
Iteration:  1282
 C         0.217910         1.001537        -0.133321
 C         1.469438         0.260715        -0.108163
 C         2.533084        -0.049323        -1.143866
 C         3.342759        -0.372885         0.162145
 C         2.727689        -1.636308         0.594759
 O         1.310292        -1.167833         0.442949
 O         4.648615         0.174201         0.129192
 C         3.955247         1.374255         0.396141
 C         2.643909         0.731280         0.780461
 H        -0.325203         0.929569         0.834810
 H         0.309718         2.096639        -0.372281
 H        -0.539915         0.618471        -0.864414
 H         2.396230        -0.830279        -1.941388
 H         3.052773         0.728254        -1.669327
 H         2.684151        -2.592766         0.026854
 H         2.771327        -2.034980         1.624459
 H         4.508103         2.038710         1.200500
 H         3.868818         2.113734        -0.429266
 H         2.539152         0.626585         1.951737
