19
Iteration:  2895charge 0 multiplicity 1
 C         0.153546         1.101857        -0.091201
 C         1.517752         0.261335        -0.077503
 C         2.489232        -0.035384        -1.235434
 C         3.298861        -0.449495         0.130896
 C         2.678546        -1.736027         0.679010
 O         1.297024        -1.202975         0.496160
 O         4.701322         0.173007         0.104953
 C         4.034446         1.433332         0.313126
 C         2.689524         0.730418         0.828298
 H        -0.159672         1.293465         0.946501
 H         0.343845         1.944634        -0.721876
 H        -0.638802         0.595731        -0.765880
 H         2.250216        -0.770129        -2.032737
 H         2.753925         0.959552        -1.580081
 H         2.737103        -2.597517        -0.039313
 H         2.895715        -1.916998         1.798891
 H         4.567917         2.158007         1.001051
 H         3.837471         2.040877        -0.583240
 H         2.386584         0.601639         1.889977
