19
Iteration:  4188charge 0 multiplicity 1
 C         0.126863         1.001736        -0.120138
 C         1.459501         0.245109        -0.032776
 C         2.403364        -0.110838        -1.213004
 C         3.372476        -0.448775         0.012362
 C         2.667759        -1.593235         0.616536
 O         1.356715        -1.020136         0.499486
 O         4.677853         0.147185         0.119042
 C         4.107843         1.393807         0.444926
 C         2.686464         0.708755         0.795278
 H        -0.356159         1.004620         0.847454
 H         0.238524         1.852759        -0.803137
 H        -0.574939         0.379513        -0.724576
 H         2.120088        -0.919304        -1.889561
 H         2.696762         0.763476        -1.808747
 H         2.800146        -2.528134         0.106223
 H         2.738418        -1.934736         1.608170
 H         4.698731         1.815835         1.321987
 H         3.885950         2.058369        -0.417065
 H         2.600286         0.629014         1.920498
