19
Iteration:  1354charge 0 multiplicity 1
 C         0.056782         0.873628        -0.266583
 C         1.487065         0.289891        -0.069982
 C         2.490502         0.024600        -1.161549
 C         3.289994        -0.415143         0.055314
 C         2.726679        -1.682817         0.548860
 O         1.278162        -1.065636         0.601208
 O         4.705803         0.166321         0.123235
 C         4.111109         1.352233         0.500784
 C         2.682963         0.752418         0.808723
 H        -0.507454         1.239317         0.616402
 H        -0.017127         1.716451        -0.918246
 H        -0.601936         0.165098        -0.796421
 H         2.354792        -0.722746        -1.970008
 H         2.814276         1.073610        -1.605928
 H         2.981125        -2.476474        -0.160931
 H         3.016009        -2.106535         1.527632
 H         4.491208         1.835006         1.329843
 H         4.427439         2.091441        -0.296716
 H         2.444611         0.745584         1.798469
