19
Iteration:  3055charge 0 multiplicity 1
 C         0.203491         1.060700        -0.166364
 C         1.493477         0.317048        -0.067531
 C         2.462749        -0.087667        -1.172553
 C         3.384506        -0.393892         0.134856
 C         2.666529        -1.749712         0.555365
 O         1.337221        -1.162338         0.591239
 O         4.683896         0.134026         0.047464
 C         3.953600         1.404555         0.397529
 C         2.660456         0.766002         0.789354
 H        -0.239257         1.414525         0.845188
 H         0.422176         2.002047        -0.715345
 H        -0.684255         0.682330        -0.751968
 H         2.228495        -1.030434        -1.759907
 H         2.919598         0.771565        -1.664912
 H         2.652130        -2.633907        -0.134067
 H         2.865857        -1.897165         1.635999
 H         4.421286         1.854101         1.221614
 H         4.060249         2.169910        -0.331433
 H         2.408663         0.818958         1.883469
