19
Iteration:  3287
 C         0.055057         0.896674        -0.174749
 C         1.469295         0.400339        -0.101647
 C         2.395279        -0.106515        -1.164178
 C         3.357562        -0.402514         0.149284
 C         2.641400        -1.607833         0.540806
 O         1.314657        -1.094499         0.520259
 O         4.752066         0.086085         0.051789
 C         4.108659         1.431123         0.456226
 C         2.723209         0.765714         0.846796
 H        -0.378418         0.769998         0.820796
 H         0.065766         1.974937        -0.341489
 H        -0.545525         0.264247        -0.879026
 H         2.119054        -0.976269        -1.745589
 H         2.992479         0.661592        -1.667554
 H         2.727772        -2.486435        -0.152044
 H         2.917343        -1.847623         1.600668
 H         4.593856         1.932893         1.197163
 H         4.209398         2.059856        -0.444963
 H         2.515209         0.768478         1.922990
