19
Iteration:  1405
 C         0.159602         1.008903        -0.192601
 C         1.492235         0.273087        -0.074275
 C         2.498827        -0.028709        -1.223288
 C         3.381417        -0.481892         0.068081
 C         2.646518        -1.670624         0.619546
 O         1.362601        -1.109006         0.496063
 O         4.680816         0.151935         0.177898
 C         3.929846         1.479258         0.425117
 C         2.657494         0.659364         0.770246
 H        -0.217603         0.876505         0.805664
 H         0.136467         2.103551        -0.215710
 H        -0.613505         0.681748        -0.853943
 H         2.328405        -0.850068        -1.840231
 H         3.101982         0.755111        -1.574386
 H         2.757227        -2.596725        -0.034020
 H         2.913955        -1.807294         1.662045
 H         4.532808         2.042154         1.206413
 H         3.980620         2.140664        -0.492222
 H         2.482077         0.600689         1.932781
