19
Iteration:  4200
 C         0.193976         1.002866        -0.097613
 C         1.508287         0.291966        -0.101533
 C         2.448750        -0.069430        -1.235413
 C         3.360249        -0.414897         0.079972
 C         2.684201        -1.659848         0.619755
 O         1.339637        -1.106780         0.503690
 O         4.644534         0.099201         0.100805
 C         3.944999         1.393455         0.404847
 C         2.694832         0.743346         0.804930
 H        -0.096307         1.222918         0.905134
 H         0.336724         2.059791        -0.283534
 H        -0.607349         0.521724        -0.666928
 H         2.286452        -0.928762        -1.872076
 H         2.984877         0.720029        -1.723267
 H         2.583738        -2.603545         0.170466
 H         3.046075        -1.531354         1.605500
 H         4.393748         2.049003         1.210215
 H         4.021861         2.038153        -0.518410
 H         2.566633         0.627294         1.893410
