19
Iteration:  4149charge 0 multiplicity 1
 C         0.087047         0.827022        -0.277997
 C         1.534889         0.358474        -0.031863
 C         2.471023         0.020675        -1.147105
 C         3.323871        -0.402262         0.051611
 C         2.633176        -1.676636         0.574868
 O         1.353046        -1.000231         0.678233
 O         4.636165         0.077366         0.023927
 C         4.134962         1.356318         0.447861
 C         2.673984         0.788100         0.859413
 H        -0.525464         1.175196         0.589693
 H         0.134379         1.742579        -0.886502
 H        -0.478754         0.020795        -0.825257
 H         2.166536        -0.583909        -2.057084
 H         2.828977         0.953521        -1.624831
 H         2.522260        -2.444942        -0.333661
 H         3.119272        -2.249485         1.490790
 H         4.701046         1.686889         1.304599
 H         4.262172         2.051268        -0.413325
 H         2.424092         0.666521         1.903868
