19
Iteration:  4912charge 0 multiplicity 1
 C         0.171709         0.975122        -0.151069
 C         1.548095         0.350119        -0.032265
 C         2.457678        -0.062334        -1.180286
 C         3.258236        -0.384698         0.101289
 C         2.678922        -1.687250         0.495314
 O         1.324249        -1.100176         0.632118
 O         4.632958         0.071051         0.015838
 C         4.099165         1.395952         0.424825
 C         2.685016         0.819855         0.850028
 H        -0.583458         0.721461         0.595540
 H         0.220102         2.033225        -0.439265
 H        -0.333221         0.510020        -1.011209
 H         2.344362        -0.904922        -1.901775
 H         2.791758         0.862915        -1.639360
 H         2.711589        -2.577392        -0.170395
 H         3.023763        -2.130015         1.442725
 H         4.742369         1.708525         1.254088
 H         3.987834         2.094669        -0.372548
 H         2.282336         0.777112         1.880906
