19
Iteration:  2785charge 0 multiplicity 1
 C         0.102558         0.940575        -0.220496
 C         1.477527         0.331768        -0.001075
 C         2.445725        -0.019169        -1.143462
 C         3.422020        -0.432502         0.061737
 C         2.625470        -1.668648         0.647536
 O         1.307523        -1.065411         0.563423
 O         4.737863         0.118250         0.020538
 C         4.027633         1.382342         0.391138
 C         2.741587         0.754447         0.845285
 H        -0.709150         0.822521         0.523544
 H         0.049584         1.961048        -0.485038
 H        -0.305928         0.323010        -1.090042
 H         2.094158        -0.895048        -1.829345
 H         2.804195         0.776099        -1.745185
 H         2.688819        -2.547434        -0.025787
 H         2.802471        -1.771916         1.762216
 H         4.549311         1.851137         1.247224
 H         4.015289         1.937752        -0.470994
 H         2.469882         0.742913         1.900117
