19
Iteration:  4807
 C         0.242533         1.089576        -0.120703
 C         1.503651         0.219122         0.015658
 C         2.397550        -0.103883        -1.195656
 C         3.391724        -0.444876         0.001489
 C         2.646190        -1.699601         0.560082
 O         1.315381        -1.113597         0.524493
 O         4.641145         0.207186         0.113248
 C         3.993829         1.464420         0.442717
 C         2.731605         0.631338         0.805175
 H        -0.191877         1.568030         0.814466
 H         0.382523         2.056418        -0.711436
 H        -0.485651         0.460308        -0.697377
 H         2.015565        -0.882897        -1.873832
 H         2.668123         0.891414        -1.711642
 H         2.505938        -2.566659        -0.083047
 H         2.843190        -2.031364         1.596704
 H         4.692011         2.108625         1.087972
 H         4.036908         2.053133        -0.536416
 H         2.633096         0.477688         1.904450
