19
Iteration:  2624
 C         0.120041         1.001628        -0.142239
 C         1.525168         0.269399        -0.119098
 C         2.515599        -0.047868        -1.255193
 C         3.342861        -0.388677         0.122513
 C         2.665753        -1.672290         0.650981
 O         1.320493        -1.131666         0.554655
 O         4.625036         0.083382         0.100118
 C         4.059220         1.424881         0.383710
 C         2.660639         0.802416         0.789681
 H        -0.252669         0.785378         0.865673
 H         0.362911         2.009772        -0.096063
 H        -0.534483         0.585299        -0.962063
 H         2.265262        -0.980064        -1.818360
 H         2.793959         0.780364        -1.829520
 H         2.805749        -2.575038         0.110113
 H         3.075408        -1.656681         1.614061
 H         4.602685         1.835641         1.277386
 H         4.015630         2.044230        -0.542992
 H         2.352061         0.776657         1.835533
