19
Iteration:  4925charge 0 multiplicity 1
 C         0.187107         0.986397        -0.176315
 C         1.466359         0.307116        -0.056281
 C         2.419631        -0.038826        -1.161803
 C         3.391477        -0.438860         0.038604
 C         2.592018        -1.719648         0.570221
 O         1.327716        -1.105398         0.588893
 O         4.686124         0.151447         0.042496
 C         4.063948         1.424445         0.414983
 C         2.656527         0.730480         0.826945
 H        -0.226600         0.963044         0.817675
 H         0.451085         2.036358        -0.208798
 H        -0.344286         0.639370        -0.957357
 H         1.980550        -0.861906        -1.693342
 H         2.890741         0.750854        -1.753903
 H         2.602575        -2.485494        -0.202901
 H         2.946805        -1.959479         1.586683
 H         4.469348         1.848383         1.379626
 H         4.226418         2.101160        -0.390501
 H         2.742687         0.724892         1.937954
