19
Iteration:  1984charge 0 multiplicity 1
 C         0.148937         0.977052        -0.208576
 C         1.482990         0.267903        -0.080794
 C         2.572013        -0.056434        -1.209100
 C         3.368589        -0.427881         0.080309
 C         2.647266        -1.634534         0.564885
 O         1.324831        -1.116922         0.577797
 O         4.703804         0.159448         0.092817
 C         3.986502         1.409038         0.464564
 C         2.601114         0.690193         0.813685
 H         0.087890         1.231338         0.869890
 H         0.308585         1.907687        -0.678538
 H        -0.751306         0.477736        -0.611929
 H         2.180870        -0.713329        -2.009883
 H         2.959086         0.879022        -1.605782
 H         2.560210        -2.468350        -0.125970
 H         3.062144        -1.805358         1.596982
 H         4.528208         1.954050         1.432034
 H         3.981385         2.152933        -0.419034
 H         2.225827         0.504420         1.818698
