19
Iteration:  2677charge 0 multiplicity 1
 C         0.043845         0.829748        -0.337763
 C         1.497257         0.366093         0.006093
 C         2.415842        -0.062335        -1.174958
 C         3.345051        -0.382701         0.057228
 C         2.631404        -1.655121         0.571130
 O         1.350885        -1.007514         0.656632
 O         4.650912         0.106806         0.005651
 C         4.166188         1.370268         0.482346
 C         2.709415         0.806502         0.888325
 H        -0.389285         1.230897         0.579514
 H         0.152230         1.595776        -1.017492
 H        -0.493249        -0.074246        -0.686748
 H         2.109523        -0.775219        -1.968503
 H         2.954195         0.776339        -1.554284
 H         2.627029        -2.465823        -0.193909
 H         3.010336        -2.140294         1.502325
 H         4.866531         1.858093         1.329942
 H         4.192982         2.214549        -0.278878
 H         2.519644         0.437562         1.883272
