19
Iteration:   165
 C         0.068976         0.775534        -0.254550
 C         1.467500         0.246714        -0.029201
 C         2.471081         0.110800        -1.187055
 C         3.362385        -0.374725         0.167450
 C         2.669851        -1.708104         0.547990
 O         1.353939        -1.123390         0.551687
 O         4.638857         0.135752        -0.018291
 C         4.112470         1.434436         0.479284
 C         2.662556         0.800969         0.889221
 H        -0.463134         0.965180         0.668908
 H         0.407427         1.830251        -0.606087
 H        -0.622249         0.351765        -1.016466
 H         2.347716        -0.610570        -1.932879
 H         2.831736         1.045660        -1.446799
 H         2.815246        -2.450062        -0.181208
 H         2.931560        -2.145943         1.484398
 H         4.590871         1.608772         1.514573
 H         4.393585         2.274531        -0.236254
 H         2.390750         1.010994         1.954187
