19
Iteration:  3202
 C         0.265154         1.019969        -0.139402
 C         1.512441         0.226180        -0.096365
 C         2.426253        -0.167339        -1.241144
 C         3.369090        -0.399949         0.123179
 C         2.702820        -1.680366         0.695065
 O         1.291437        -1.069033         0.485785
 O         4.626647         0.197625        -0.014757
 C         4.013396         1.451504         0.512605
 C         2.630946         0.734586         0.806473
 H         0.173694         1.168005         0.927326
 H         0.313407         2.026777        -0.675432
 H        -0.642955         0.641085        -0.633923
 H         2.239859        -1.003030        -1.866743
 H         2.663443         0.651038        -1.872243
 H         2.718442        -2.485426        -0.029181
 H         2.881659        -2.126949         1.712449
 H         4.526286         1.627725         1.464014
 H         4.099945         2.258024        -0.242446
 H         2.581133         0.482347         1.845227
