19
Iteration:  4710charge 0 multiplicity 1
 C         0.155682         0.934365        -0.131397
 C         1.504498         0.300043        -0.099638
 C         2.437913         0.070383        -1.208681
 C         3.401911        -0.485962         0.032045
 C         2.701358        -1.698854         0.594925
 O         1.308085        -1.005861         0.583677
 O         4.655428         0.059968         0.103664
 C         4.045047         1.428146         0.446121
 C         2.652815         0.687868         0.797143
 H        -0.326753         0.929538         0.882992
 H         0.055962         2.014717        -0.464447
 H        -0.380811         0.342598        -0.893927
 H         2.136070        -0.641355        -1.954026
 H         2.635936         0.975564        -1.883263
 H         2.589801        -2.613493         0.049342
 H         3.170958        -1.945586         1.554109
 H         4.665021         2.012301         1.099880
 H         3.954540         2.118736        -0.353099
 H         2.581829         0.616395         1.897306
