19
Iteration:  3486charge 0 multiplicity 1
 C         0.301247         1.097689        -0.164538
 C         1.525729         0.237362         0.013815
 C         2.411675        -0.093658        -1.169396
 C         3.373615        -0.504464         0.015290
 C         2.710348        -1.714812         0.512327
 O         1.269453        -1.100557         0.564929
 O         4.693350         0.125108         0.141325
 C         3.869272         1.554701         0.357453
 C         2.690822         0.680180         0.854925
 H        -0.202627         1.234530         0.759546
 H         0.606974         1.942924        -0.816757
 H        -0.493982         0.642770        -0.790726
 H         2.224274        -0.928271        -1.868454
 H         2.942685         0.642321        -1.782737
 H         2.720873        -2.642909        -0.063439
 H         2.888972        -1.829795         1.603728
 H         4.359130         2.015595         1.272612
 H         3.605748         2.312825        -0.576716
 H         2.638593         0.638216         2.024394
