19
Iteration:  2125
 C         0.242182         0.916148        -0.220082
 C         1.523986         0.254406        -0.026625
 C         2.470071         0.045761        -1.144525
 C         3.363564        -0.431755         0.052036
 C         2.673543        -1.709893         0.558819
 O         1.276603        -1.110703         0.582234
 O         4.665515         0.116876         0.098794
 C         3.986915         1.468315         0.397092
 C         2.617751         0.750633         0.809712
 H        -0.299716         1.038414         0.781933
 H         0.368867         1.906658        -0.624746
 H        -0.403493         0.394902        -1.044086
 H         2.360214        -0.662784        -1.969732
 H         3.049074         0.978404        -1.483334
 H         2.627533        -2.682245         0.033010
 H         3.136195        -1.776096         1.607035
 H         4.378635         1.746410         1.325540
 H         4.026877         2.253427        -0.383015
 H         2.430753         0.686535         1.841243
