19
Iteration:  4129charge 0 multiplicity 1
 C         0.105570         0.902000        -0.278162
 C         1.416055         0.268743        -0.041483
 C         2.434306         0.021104        -1.148270
 C         3.349155        -0.406156         0.026324
 C         2.692542        -1.640318         0.535691
 O         1.278110        -1.000665         0.633516
 O         4.718212         0.028026         0.064096
 C         4.047360         1.418845         0.449162
 C         2.805572         0.729328         0.884574
 H        -0.406704         1.106121         0.728256
 H         0.142047         1.867394        -0.817174
 H        -0.426925         0.088538        -0.815367
 H         2.142434        -0.837955        -1.825177
 H         2.807287         0.913087        -1.707007
 H         2.758001        -2.495066        -0.113808
 H         2.827412        -1.735403         1.571235
 H         4.711834         1.816783         1.150216
 H         3.951133         2.133293        -0.336393
 H         2.635113         0.691339         1.969010
