19
Iteration:  1464
 C         0.104776         0.991317        -0.288230
 C         1.536576         0.318906         0.003460
 C         2.438108        -0.004591        -1.251899
 C         3.385180        -0.483600         0.064434
 C         2.709477        -1.682448         0.615343
 O         1.301847        -1.076688         0.525220
 O         4.701778         0.191383         0.118357
 C         3.995100         1.415099         0.476385
 C         2.683422         0.692442         0.909561
 H        -0.422351         0.847414         0.641705
 H         0.155953         1.892277        -0.796545
 H        -0.359078         0.139178        -0.774153
 H         2.185443        -0.740582        -2.078478
 H         2.933647         0.825995        -1.834094
 H         2.823569        -2.598971        -0.013270
 H         2.868706        -2.092184         1.651565
 H         4.636330         1.817491         1.237142
 H         3.871046         2.051797        -0.459291
 H         2.307703         0.572552         1.880801
