19
Iteration:   206
 C         0.019587         0.889417        -0.159362
 C         1.470142         0.256536        -0.120082
 C         2.406226         0.001756        -1.310905
 C         3.403896        -0.423871        -0.019914
 C         2.731885        -1.645642         0.614757
 O         1.395343        -0.998005         0.514040
 O         4.704538         0.151975         0.162682
 C         4.043268         1.459977         0.559118
 C         2.728072         0.647548         0.843207
 H        -0.668730         0.512673         0.697874
 H        -0.048757         1.998857        -0.126204
 H        -0.440734         0.365503        -1.041157
 H         1.904858        -0.821895        -1.848954
 H         2.637351         0.822781        -2.026215
 H         2.582263        -2.563452        -0.082358
 H         2.979405        -1.902131         1.722225
 H         4.594291         1.868139         1.340331
 H         3.909764         2.227773        -0.276165
 H         2.613940         0.315001         2.026449
