19
Iteration:   162charge 0 multiplicity 1
 C         0.062180         0.775085        -0.268220
 C         1.465258         0.256439        -0.032122
 C         2.455092         0.107549        -1.171565
 C         3.366766        -0.381915         0.173758
 C         2.669767        -1.702637         0.526652
 O         1.360030        -1.111269         0.550655
 O         4.643770         0.148351        -0.011241
 C         4.102450         1.430572         0.484009
 C         2.675988         0.768878         0.885656
 H        -0.483119         1.092174         0.723611
 H         0.429321         1.768775        -0.545026
 H        -0.664686         0.319661        -0.979798
 H         2.405545        -0.632283        -1.960070
 H         2.951717         1.036438        -1.473147
 H         2.799671        -2.545992        -0.226824
 H         2.902883        -2.067328         1.592323
 H         4.535127         1.666104         1.401856
 H         4.359138         2.236285        -0.288667
 H         2.419623         0.991541         2.040972
