19
Iteration:    57charge 0 multiplicity 1
 C         0.082941         0.843412        -0.201043
 C         1.507654         0.266476         0.017426
 C         2.357966        -0.002504        -1.240272
 C         3.375312        -0.421497         0.069898
 C         2.749292        -1.703245         0.575011
 O         1.266967        -0.996273         0.458160
 O         4.718436         0.172457         0.117796
 C         4.015385         1.504576         0.487297
 C         2.799033         0.650437         0.886631
 H        -0.597520         0.622114         0.506977
 H         0.061799         1.928218        -0.468040
 H        -0.276118         0.345083        -1.091349
 H         1.863385        -0.811180        -1.855554
 H         2.792041         0.758444        -1.909724
 H         2.812288        -2.656386         0.023239
 H         2.966229        -1.760969         1.638580
 H         4.655691         1.935624         1.335357
 H         3.889925         2.139002        -0.319801
 H         2.706077         0.543437         1.883891
