19
Iteration:  1336charge 0 multiplicity 1
 C         0.119985         0.872791        -0.257431
 C         1.454140         0.259578        -0.078315
 C         2.534655        -0.002452        -1.243990
 C         3.395077        -0.373731        -0.009975
 C         2.681471        -1.619519         0.525635
 O         1.354494        -1.061448         0.633249
 O         4.673234         0.055019         0.115392
 C         3.992285         1.445475         0.535380
 C         2.653035         0.760064         0.871222
 H        -0.333813         1.353328         0.677387
 H         0.193944         1.712654        -1.056497
 H        -0.568442         0.118843        -0.779865
 H         2.085024        -0.795395        -1.955913
 H         2.844068         0.989792        -1.652336
 H         2.469880        -2.542310        -0.031961
 H         3.077264        -1.913999         1.540104
 H         4.636645         1.785834         1.440226
 H         4.006946         2.301478        -0.156676
 H         2.468891         0.494400         1.985861
