19
Iteration:  3869charge 0 multiplicity 1
 C         0.079693         0.865965        -0.216908
 C         1.486871         0.294218        -0.083611
 C         2.456988        -0.005047        -1.219374
 C         3.273311        -0.421961        -0.047314
 C         2.691481        -1.648975         0.564091
 O         1.293694        -1.036858         0.638169
 O         4.638942         0.056696         0.057436
 C         4.196616         1.367867         0.534823
 C         2.710631         0.851625         0.869002
 H        -0.465370         1.106088         0.668456
 H         0.282329         1.824166        -0.613459
 H        -0.507690         0.236587        -0.798771
 H         2.255409        -0.749018        -2.006359
 H         3.007540         0.811143        -1.665552
 H         2.695159        -2.626236         0.055149
 H         3.120914        -1.803950         1.576206
 H         4.691018         1.866185         1.382958
 H         4.182867         2.099170        -0.359583
 H         2.353795         0.782476         1.919856
