19
Iteration:  3765charge 0 multiplicity 1
 C         0.288045         1.089166        -0.129566
 C         1.535312         0.265490        -0.036605
 C         2.393206        -0.094426        -1.232855
 C         3.381953        -0.458513        -0.000311
 C         2.688817        -1.613366         0.671818
 O         1.291253        -1.143272         0.506402
 O         4.694832         0.144672         0.093252
 C         3.893980         1.427849         0.454202
 C         2.661416         0.698034         0.842954
 H        -0.354581         1.029608         0.726984
 H         0.584196         2.023192        -0.536738
 H        -0.273330         0.864630        -1.031217
 H         1.863323        -0.831563        -1.810607
 H         2.887691         0.607401        -1.898078
 H         2.869625        -2.485028        -0.025733
 H         3.071401        -1.802686         1.689285
 H         4.609602         1.817093         1.139835
 H         3.737398         2.016345        -0.430177
 H         2.402151         0.474651         1.845456
