19
Iteration:  1502
 C         0.108776         0.838217        -0.194681
 C         1.441635         0.255288        -0.099475
 C         2.486442        -0.035922        -1.259181
 C         3.338030        -0.347161         0.030962
 C         2.703706        -1.620587         0.555180
 O         1.291099        -1.078786         0.530742
 O         4.699146         0.083069         0.156729
 C         4.144598         1.421906         0.517437
 C         2.650209         0.805894         0.870095
 H        -0.455724         1.214837         0.683892
 H        -0.053581         1.728134        -0.933081
 H        -0.553303         0.066059        -0.654464
 H         2.266915        -0.853096        -1.925210
 H         2.833001         0.931802        -1.652696
 H         2.751813        -2.418044        -0.184118
 H         2.885294        -1.986753         1.538961
 H         4.531332         1.854726         1.491286
 H         4.201926         2.086401        -0.311149
 H         2.558319         1.003301         2.000690
