19
Iteration:  2089charge 0 multiplicity 1
 C        -0.018959         0.849682        -0.206806
 C         1.404227         0.364049        -0.105900
 C         2.420414        -0.080803        -1.145568
 C         3.410690        -0.411078        -0.015197
 C         2.757325        -1.576443         0.527218
 O         1.287865        -0.995884         0.523666
 O         4.742524         0.085114         0.146960
 C         4.115559         1.443068         0.532479
 C         2.699045         0.733283         0.823230
 H        -0.595026         0.476504         0.680829
 H        -0.139547         1.959418        -0.376233
 H        -0.398914         0.296042        -1.033608
 H         2.219497        -1.092324        -1.707370
 H         2.974117         0.547344        -1.765205
 H         2.665703        -2.556943         0.016565
 H         2.959379        -1.809625         1.542651
 H         4.634534         1.627657         1.430372
 H         4.457486         2.154645        -0.277208
 H         2.565566         0.627111         1.940405
