19
Iteration:  3818
 C         0.158722         0.968384        -0.171221
 C         1.550696         0.315019        -0.095322
 C         2.514202        -0.031243        -1.146421
 C         3.371058        -0.399002         0.048807
 C         2.567168        -1.678729         0.556921
 O         1.341760        -1.090339         0.551529
 O         4.625403         0.079268         0.112463
 C         4.021198         1.419677         0.368325
 C         2.703852         0.784605         0.873380
 H        -0.108177         1.132455         0.945020
 H         0.041905         1.966479        -0.712502
 H        -0.593976         0.139310        -0.523990
 H         2.228450        -0.846803        -1.737155
 H         2.693718         0.813375        -1.771343
 H         2.753493        -2.459862        -0.166575
 H         2.815149        -2.091106         1.542210
 H         4.568218         1.856357         1.251351
 H         4.162154         1.988545        -0.477331
 H         2.610590         0.644554         1.908734
