19
Iteration:   310charge 0 multiplicity 1
 C         0.045014         0.847682        -0.247852
 C         1.439754         0.281941        -0.118213
 C         2.465579         0.015790        -1.184901
 C         3.379718        -0.352714         0.045558
 C         2.735945        -1.701828         0.554896
 O         1.366638        -1.075264         0.595685
 O         4.686940         0.168235         0.039405
 C         4.083727         1.382492         0.590471
 C         2.621105         0.755384         0.797923
 H        -0.196069         1.114851         0.818576
 H         0.041045         1.775834        -0.851642
 H        -0.706482         0.153783        -0.640931
 H         2.313185        -0.755165        -1.874609
 H         2.650184         1.038676        -1.574056
 H         2.903631        -2.462895        -0.157687
 H         2.865158        -2.060716         1.533486
 H         4.447137         1.693073         1.677763
 H         4.483889         2.154187        -0.071968
 H         2.381056         0.627178         1.817582
