19
Iteration:  2543
 C         0.046854         0.990175        -0.297658
 C         1.510739         0.237037        -0.096557
 C         2.456861        -0.051865        -1.190913
 C         3.276009        -0.420818         0.026454
 C         2.707283        -1.699657         0.655495
 O         1.364630        -1.041538         0.652569
 O         4.680381         0.093471         0.013215
 C         4.135414         1.406449         0.532775
 C         2.641708         0.805661         0.815607
 H        -0.387157         1.254480         0.655548
 H         0.068690         1.858605        -1.071281
 H        -0.727989         0.378950        -0.694172
 H         2.117690        -0.853771        -1.845647
 H         2.878307         0.802855        -1.810476
 H         2.886971        -2.570357        -0.009692
 H         3.237800        -2.042943         1.600329
 H         4.713325         1.658306         1.561007
 H         4.172722         2.330233        -0.151494
 H         2.310399         0.658216         1.867928
