19
Iteration:  2819charge 0 multiplicity 1
 C         0.050756         0.871564        -0.263516
 C         1.497194         0.270413         0.048938
 C         2.422145         0.026914        -1.175239
 C         3.368066        -0.436844         0.024531
 C         2.666086        -1.612610         0.528089
 O         1.320241        -1.026995         0.669568
 O         4.656646         0.071718         0.063032
 C         4.110610         1.371456         0.421545
 C         2.741367         0.830499         0.824710
 H        -0.751278         0.951558         0.488110
 H         0.218765         1.803193        -0.758159
 H        -0.286679         0.076550        -1.011947
 H         2.293361        -0.847949        -1.896617
 H         2.885913         0.893930        -1.596361
 H         2.656842        -2.559811        -0.071659
 H         2.869286        -2.044515         1.555870
 H         4.689379         1.913789         1.236943
 H         4.204339         2.001107        -0.393513
 H         2.602713         0.752847         1.919494
