19
Iteration:  2264
 C         0.117115         0.957761        -0.235483
 C         1.449709         0.261234        -0.105268
 C         2.511259         0.009224        -1.151686
 C         3.409356        -0.436763         0.071429
 C         2.645063        -1.669431         0.584597
 O         1.365721        -1.055772         0.664345
 O         4.666100         0.133652         0.070765
 C         4.014449         1.395412         0.425571
 C         2.644530         0.702159         0.810066
 H        -0.521456         0.869189         0.659233
 H         0.429291         1.959174        -0.321406
 H        -0.443185         0.757817        -1.093225
 H         2.539851        -0.773759        -1.900714
 H         2.957782         0.848800        -1.742497
 H         2.595306        -2.554370        -0.113964
 H         2.940630        -1.963022         1.559348
 H         4.340323         1.962739         1.268714
 H         4.084696         2.016442        -0.614225
 H         2.358910         0.504372         1.848233
