19
Iteration:   874
 C         0.135221         0.841941        -0.156363
 C         1.550601         0.288718        -0.095950
 C         2.479263         0.000234        -1.212286
 C         3.402779        -0.430561        -0.043548
 C         2.672975        -1.666793         0.562413
 O         1.310739        -1.049701         0.502209
 O         4.735377         0.140050         0.216477
 C         3.956946         1.471454         0.499930
 C         2.601603         0.734887         0.794525
 H        -0.196319         0.623177         0.908391
 H        -0.010350         1.926614        -0.303377
 H        -0.480901         0.406146        -0.932886
 H         2.337549        -0.837601        -1.903974
 H         2.739012         0.978337        -1.629148
 H         2.673538        -2.663586         0.027087
 H         2.968281        -1.922482         1.645775
 H         4.451261         2.026389         1.171633
 H         4.008081         2.110027        -0.358433
 H         2.470867         0.540738         1.786933
