19
Iteration:  3261
 C         0.113023         0.774300        -0.258046
 C         1.478061         0.314996         0.039616
 C         2.434712         0.093299        -1.205451
 C         3.270405        -0.401906         0.045043
 C         2.621059        -1.710988         0.569172
 O         1.321141        -1.031571         0.576504
 O         4.702534         0.042432         0.116313
 C         4.119127         1.406399         0.339011
 C         2.718542         0.863570         0.887439
 H        -0.577177         0.665521         0.588551
 H         0.251444         1.793675        -0.430706
 H        -0.309400         0.061497        -0.887246
 H         2.315193        -0.653798        -2.035578
 H         2.881248         1.102138        -1.397066
 H         2.456773        -2.604629         0.022149
 H         3.001198        -1.801104         1.540512
 H         4.708374         2.003921         1.165735
 H         4.347563         2.054945        -0.527622
 H         2.771806         0.638215         1.972892
