19
Iteration:  3762charge 0 multiplicity 1
 C         0.273964         1.078652        -0.136972
 C         1.540589         0.260587        -0.038898
 C         2.412728        -0.086480        -1.236632
 C         3.404936        -0.474348        -0.012428
 C         2.725225        -1.622153         0.677280
 O         1.281396        -1.128970         0.502219
 O         4.676130         0.130731         0.079830
 C         3.903316         1.412225         0.446204
 C         2.642475         0.725574         0.869038
 H        -0.446700         1.081844         0.746054
 H         0.579964         2.095661        -0.475880
 H        -0.313104         0.797529        -1.065037
 H         1.860234        -0.806848        -1.789401
 H         2.853696         0.650302        -1.862728
 H         2.843655        -2.431949         0.020470
 H         2.990487        -1.871849         1.718400
 H         4.596104         1.878331         1.150947
 H         3.751312         2.028781        -0.371785
 H         2.414173         0.526563         1.901791
