19
Iteration:  2344charge 0 multiplicity 1
 C         0.158829         0.881150        -0.168568
 C         1.515014         0.254309        -0.101085
 C         2.540848         0.024242        -1.200127
 C         3.323389        -0.430315        -0.056440
 C         2.592631        -1.665625         0.581347
 O         1.320329        -1.064569         0.621409
 O         4.644471         0.088081         0.168269
 C         4.086887         1.419246         0.403174
 C         2.695855         0.838360         0.842879
 H        -0.220254         1.238071         0.741976
 H         0.060410         1.587813        -0.986482
 H        -0.395974        -0.038904        -0.508316
 H         2.266145        -0.726138        -1.996967
 H         2.727017         1.051828        -1.559444
 H         2.684840        -2.510695        -0.070985
 H         2.915473        -1.992910         1.612841
 H         4.518226         1.890857         1.315366
 H         4.011042         2.185549        -0.526611
 H         2.325647         0.592194         1.830235
