19
Iteration:  1399charge 0 multiplicity 1
 C         0.174398         0.983798        -0.178957
 C         1.528007         0.312393        -0.061812
 C         2.493050        -0.061812        -1.181148
 C         3.414846        -0.451061         0.089322
 C         2.670430        -1.607560         0.593738
 O         1.317015        -1.094657         0.464981
 O         4.660162         0.171979         0.185999
 C         3.967045         1.412254         0.404019
 C         2.627972         0.654236         0.806320
 H        -0.283728         0.799873         0.842203
 H         0.026356         2.069381        -0.329607
 H        -0.533240         0.478270        -0.896314
 H         2.284892        -0.802453        -2.054710
 H         2.980647         0.761928        -1.863168
 H         2.667058        -2.590483         0.138119
 H         2.986796        -1.894826         1.638198
 H         4.570918         1.872045         1.150330
 H         3.842068         2.130454        -0.432624
 H         2.603650         0.542133         1.831480
