19
Iteration:  4444charge 0 multiplicity 1
 C         0.036875         0.885666        -0.205045
 C         1.476146         0.310384        -0.076493
 C         2.426758        -0.027776        -1.224382
 C         3.339595        -0.389260         0.014505
 C         2.691425        -1.705067         0.581969
 O         1.339008        -1.050928         0.622490
 O         4.689332         0.053281         0.065086
 C         4.203163         1.385683         0.487246
 C         2.701383         0.911722         0.859922
 H        -0.476777         0.844982         0.801672
 H         0.034843         1.883800        -0.707803
 H        -0.678324         0.278824        -0.858464
 H         1.821844        -0.664932        -1.874545
 H         2.871236         0.901639        -1.740236
 H         2.502049        -2.566894        -0.192643
 H         2.938157        -2.184830         1.617930
 H         4.668560         1.894320         1.377364
 H         4.099917         1.985993        -0.502074
 H         2.556587         0.645019         1.924096
