19
Iteration:  2884
 C         0.222612         1.049185        -0.113204
 C         1.461532         0.313289        -0.097380
 C         2.399539        -0.065786        -1.241847
 C         3.434678        -0.441473         0.090361
 C         2.661730        -1.622732         0.689550
 O         1.267458        -1.166218         0.434251
 O         4.722160         0.163129         0.108009
 C         3.946118         1.415483         0.412838
 C         2.717214         0.668590         0.818333
 H        -0.065380         1.338810         0.925205
 H         0.315094         2.029756        -0.501610
 H        -0.670899         0.368986        -0.358269
 H         2.091808        -0.901795        -1.927405
 H         2.922559         0.696861        -1.839738
 H         2.862655        -2.628290         0.201266
 H         2.964222        -1.859002         1.790331
 H         4.591932         2.103642         1.020517
 H         3.708685         1.835563        -0.521571
 H         2.612421         0.772730         1.922213
