19
Iteration:   110
 C         0.162656         1.028715        -0.078504
 C         1.469009         0.195619        -0.114077
 C         2.455135        -0.127040        -1.211158
 C         3.375325        -0.410337         0.022642
 C         2.740681        -1.717424         0.549279
 O         1.377228        -1.127717         0.468879
 O         4.660371         0.221833         0.226948
 C         3.971700         1.480935         0.466141
 C         2.613684         0.701211         0.738493
 H         0.113116         1.330331         0.961008
 H         0.286647         2.039918        -0.575302
 H        -0.793913         0.554282        -0.353496
 H         2.206270        -0.812115        -1.974632
 H         2.705713         0.820843        -1.578411
 H         2.813790        -2.419781        -0.217274
 H         3.024952        -2.072458         1.502170
 H         4.475991         1.988385         1.354148
 H         4.037370         2.170089        -0.438907
 H         2.359725         0.579471         1.808439
