19
Iteration:  1495charge 0 multiplicity 1
 C         0.088294         0.851117        -0.238960
 C         1.456664         0.196442         0.007715
 C         2.502877        -0.005614        -1.248329
 C         3.366596        -0.366049         0.025573
 C         2.661516        -1.628224         0.567521
 O         1.291672        -1.073720         0.518252
 O         4.683469         0.049974         0.136394
 C         4.089800         1.459146         0.507218
 C         2.691707         0.848687         0.862158
 H        -0.271170         1.165391         0.770489
 H         0.031014         1.694551        -0.918166
 H        -0.476880         0.015111        -0.699924
 H         2.485064        -0.767111        -2.020391
 H         2.815979         1.001478        -1.733602
 H         2.775731        -2.451827        -0.243230
 H         2.774377        -1.906094         1.655181
 H         4.694023         1.791568         1.342505
 H         4.236507         2.348145        -0.283066
 H         2.331094         0.729823         1.959908
