19
Iteration:   559
 C         0.109959         1.036105        -0.244597
 C         1.481761         0.232526         0.025562
 C         2.542293        -0.108704        -1.256094
 C         3.419263        -0.409382         0.039206
 C         2.705125        -1.694851         0.530900
 O         1.307300        -1.177528         0.529728
 O         4.703375         0.210812         0.102553
 C         3.943576         1.502161         0.550615
 C         2.674931         0.715627         0.846975
 H        -0.601878         0.936109         0.540373
 H         0.395046         2.050776        -0.286662
 H        -0.387408         0.682981        -1.090261
 H         2.191047        -0.933405        -1.831475
 H         2.662866         0.801324        -1.924953
 H         2.729312        -2.627174        -0.066828
 H         3.083743        -1.974191         1.523322
 H         4.340840         1.922800         1.438096
 H         3.688853         2.217138        -0.236855
 H         2.497424         0.616807         2.004718
