19
Iteration:  3083
 C         0.110764         0.914865        -0.217660
 C         1.475431         0.318428         0.008762
 C         2.389428        -0.041317        -1.208555
 C         3.355575        -0.364750         0.026833
 C         2.710186        -1.592083         0.659114
 O         1.264845        -1.097181         0.520612
 O         4.627653         0.097459         0.025016
 C         4.141000         1.391758         0.484503
 C         2.766840         0.695072         0.842505
 H        -0.556016         1.047579         0.584105
 H         0.348961         1.895052        -0.696174
 H        -0.348529         0.508821        -1.060244
 H         2.082372        -0.902963        -1.806926
 H         2.799157         0.747817        -1.819164
 H         2.716931        -2.637707         0.273263
 H         2.958386        -1.573584         1.704282
 H         4.759676         1.754179         1.427584
 H         4.235214         2.228527        -0.280934
 H         2.617840         0.571529         1.892552
