19
Iteration:   274charge 0 multiplicity 1
 C         0.157086         1.003679        -0.196973
 C         1.504309         0.300037         0.020529
 C         2.455083        -0.011144        -1.205406
 C         3.439176        -0.410902         0.023624
 C         2.686181        -1.721583         0.534491
 O         1.333887        -1.159390         0.494326
 O         4.696438         0.237062         0.148483
 C         3.917544         1.470267         0.469897
 C         2.671867         0.634906         0.847175
 H        -0.297184         1.335843         0.714928
 H         0.189199         1.977468        -0.853287
 H        -0.582216         0.208440        -0.537488
 H         2.148038        -0.804289        -1.766565
 H         2.760199         0.661711        -1.950179
 H         2.674727        -2.622835        -0.142352
 H         2.928922        -1.964306         1.581653
 H         4.412671         1.936865         1.333969
 H         3.886789         2.034326        -0.482992
 H         2.710901         0.323335         1.995502
