19
Iteration:   780charge 0 multiplicity 1
 C         0.041694         0.849211        -0.169165
 C         1.442729         0.294891        -0.084586
 C         2.526112        -0.025199        -1.205348
 C         3.397577        -0.360618         0.065343
 C         2.706510        -1.618784         0.519126
 O         1.340394        -1.099591         0.535772
 O         4.727556         0.131405         0.135462
 C         4.028833         1.428512         0.548665
 C         2.615750         0.746186         0.789053
 H        -0.521716         1.119761         0.737220
 H         0.124701         1.708228        -0.779548
 H        -0.445581         0.237361        -0.898217
 H         2.361133        -0.867576        -1.939276
 H         2.889345         0.848048        -1.692040
 H         2.703128        -2.380961        -0.289679
 H         2.836798        -2.144236         1.444622
 H         4.524183         1.924157         1.522563
 H         4.203438         2.261074        -0.243322
 H         2.417827         0.525453         1.940130
