19
Iteration:  3611charge 0 multiplicity 1
 C         0.254901         1.060104        -0.156008
 C         1.462654         0.205703        -0.049596
 C         2.463411        -0.091266        -1.247832
 C         3.360143        -0.417333         0.062315
 C         2.688422        -1.721901         0.573850
 O         1.285830        -1.071598         0.628384
 O         4.667144         0.157852         0.128034
 C         3.931273         1.468046         0.400145
 C         2.697181         0.671102         0.776364
 H        -0.348944         1.194261         0.758330
 H         0.612901         2.043928        -0.376593
 H        -0.381881         0.664354        -0.953042
 H         2.309394        -0.857311        -1.978713
 H         2.849442         0.790927        -1.711364
 H         2.675643        -2.618410        -0.145111
 H         2.890039        -2.040536         1.622132
 H         4.593151         1.886375         1.190734
 H         3.822089         2.243424        -0.535020
 H         2.719412         0.725346         1.816413
