19
Iteration:  2369charge 0 multiplicity 1
 C         0.012372         0.839889        -0.249144
 C         1.427268         0.342603        -0.069055
 C         2.417976        -0.002143        -1.187372
 C         3.358183        -0.374765         0.057305
 C         2.690524        -1.606677         0.524852
 O         1.350664        -0.986563         0.625666
 O         4.737700         0.049885         0.175827
 C         4.125699         1.396655         0.445667
 C         2.749367         0.717761         0.781015
 H        -0.550529         1.130245         0.698129
 H         0.036457         1.706387        -1.039375
 H        -0.474289        -0.017755        -0.714587
 H         1.890904        -0.885911        -1.633284
 H         2.737319         0.740872        -1.843828
 H         2.756466        -2.324812        -0.306683
 H         2.994927        -2.075902         1.507960
 H         4.592343         1.798840         1.451212
 H         4.065118         2.129705        -0.317138
 H         2.456162         0.539939         1.836800
