19
Iteration:  1114
 C         0.150087         0.973020        -0.171536
 C         1.510708         0.307798        -0.061402
 C         2.521761        -0.075978        -1.185084
 C         3.409406        -0.362561         0.021582
 C         2.716954        -1.757075         0.620018
 O         1.200814        -1.114280         0.453436
 O         4.733995         0.227890         0.168230
 C         3.978972         1.457283         0.427768
 C         2.678067         0.667149         0.854698
 H        -0.327497         0.827631         0.826373
 H         0.292235         1.999573        -0.410668
 H        -0.537827         0.384212        -0.776757
 H         2.319318        -0.866325        -1.951866
 H         2.705133         0.783078        -1.876633
 H         2.864502        -2.613063         0.079574
 H         2.873796        -1.812084         1.686292
 H         4.287476         2.055305         1.175612
 H         3.778900         1.889008        -0.554082
 H         2.486962         0.531592         1.879535
