19
Iteration:  2437charge 0 multiplicity 1
 C         0.201206         1.050734        -0.116455
 C         1.536364         0.324429        -0.132940
 C         2.431239        -0.115950        -1.245033
 C         3.420512        -0.477349         0.053185
 C         2.674156        -1.722694         0.657814
 O         1.273908        -1.121979         0.533607
 O         4.662445         0.235600         0.150511
 C         3.951966         1.475844         0.382681
 C         2.673707         0.649701         0.818110
 H        -0.479560         1.087716         0.826946
 H         0.513176         2.125232        -0.256767
 H        -0.382636         0.932768        -1.072787
 H         2.150762        -1.036703        -1.661341
 H         3.083862         0.463171        -1.990158
 H         2.877638        -2.680880         0.049860
 H         2.847855        -1.864549         1.714177
 H         4.373500         2.108522         1.219360
 H         4.026400         1.852909        -0.586771
 H         2.622699         0.487515         1.900280
