19
Iteration:   690
 C         0.261515         0.975131        -0.225672
 C         1.495099         0.275696        -0.063992
 C         2.414999        -0.122335        -1.119253
 C         3.405780        -0.417224         0.032346
 C         2.734170        -1.720541         0.506206
 O         1.277316        -1.181699         0.507185
 O         4.670014         0.280459         0.138481
 C         3.954108         1.453178         0.502044
 C         2.615512         0.734858         0.865919
 H        -0.304910         1.085951         0.739832
 H         0.515833         1.977000        -0.537608
 H        -0.269412         0.600590        -1.062005
 H         2.157642        -0.927379        -1.767643
 H         2.659385         0.694078        -1.853936
 H         2.822186        -2.436231        -0.289169
 H         3.109418        -2.150432         1.438129
 H         4.365851         1.874789         1.475289
 H         3.978161         2.304062        -0.315339
 H         2.520275         0.760086         1.969521
