19
Iteration:  3460
 C         0.206114         1.012933        -0.157238
 C         1.509627         0.270898        -0.030688
 C         2.499107        -0.038838        -1.205678
 C         3.365238        -0.436443         0.101430
 C         2.574370        -1.719592         0.626048
 O         1.263891        -1.145220         0.545029
 O         4.733021         0.205862         0.003376
 C         4.071934         1.471638         0.366497
 C         2.597314         0.702807         0.917252
 H        -0.334175         0.965706         0.861298
 H         0.356088         2.035536        -0.498485
 H        -0.427737         0.612232        -1.004863
 H         2.323055        -0.940964        -1.908583
 H         3.169807         0.699771        -1.721077
 H         2.703098        -2.585055        -0.035339
 H         2.721164        -2.028734         1.623647
 H         4.587432         1.944880         1.173854
 H         3.848349         2.249862        -0.526672
 H         2.505233         0.425768         1.946907
