19
Iteration:  2839
 C         0.080598         0.928324        -0.232807
 C         1.467101         0.273842        -0.190620
 C         2.479388        -0.034867        -1.182662
 C         3.342045        -0.377890         0.068613
 C         2.648742        -1.655310         0.571962
 O         1.309083        -1.072644         0.708854
 O         4.763945         0.087844         0.063767
 C         4.115393         1.423183         0.423102
 C         2.642457         0.773763         0.786528
 H        -0.200927         1.112837         0.862509
 H         0.128687         1.936397        -0.507730
 H        -0.793228         0.267817        -0.477751
 H         2.009991        -0.803675        -1.868936
 H         2.807532         0.875244        -1.603590
 H         2.717007        -2.544680        -0.108400
 H         2.989126        -2.144701         1.559976
 H         4.518625         1.759582         1.354896
 H         4.303218         2.189537        -0.249483
 H         2.335772         0.645929         1.840874
