19
Iteration:  1750charge 0 multiplicity 1
 C         0.120280         0.966533        -0.244587
 C         1.467042         0.320632         0.015979
 C         2.510699        -0.075888        -1.161084
 C         3.390726        -0.431360         0.056507
 C         2.663544        -1.683254         0.641524
 O         1.299824        -1.146958         0.465444
 O         4.712493         0.167908         0.106015
 C         4.010118         1.451325         0.472575
 C         2.665327         0.693147         0.816359
 H        -0.434698         0.868207         0.674245
 H         0.274001         2.082646        -0.355942
 H        -0.488380         0.737395        -1.081641
 H         2.233314        -0.678398        -1.990037
 H         3.030746         0.793223        -1.720617
 H         2.606204        -2.551880        -0.001593
 H         3.021300        -1.740188         1.676343
 H         4.513420         2.140173         1.237667
 H         3.910497         2.089311        -0.486740
 H         2.493313         0.533902         1.835553
