19
Iteration:  1912
 C         0.058674         0.905149        -0.178607
 C         1.471037         0.253677        -0.143905
 C         2.549396         0.018050        -1.167503
 C         3.389388        -0.456365         0.002754
 C         2.628126        -1.660901         0.566560
 O         1.361665        -1.059927         0.622695
 O         4.672533         0.121213         0.165421
 C         4.018880         1.431281         0.417613
 C         2.685159         0.732179         0.825900
 H        -0.663952         0.780859         0.661991
 H         0.313980         2.025161        -0.475207
 H        -0.506720         0.590004        -1.133843
 H         2.370648        -0.704641        -1.956392
 H         3.065652         0.937345        -1.713234
 H         2.659115        -2.453681        -0.221369
 H         2.741067        -1.931148         1.617878
 H         4.604801         1.786939         1.180976
 H         4.202495         2.205017        -0.316624
 H         2.347941         0.613517         1.974497
