19
Iteration:  2615charge 0 multiplicity 1
 C         0.173530         1.028334        -0.111572
 C         1.519855         0.353833        -0.112162
 C         2.526681        -0.094811        -1.168339
 C         3.379882        -0.380148         0.103285
 C         2.718622        -1.688928         0.671662
 O         1.276880        -1.173343         0.501195
 O         4.691950         0.051501         0.097010
 C         3.980733         1.486461         0.319428
 C         2.572611         0.779891         0.814904
 H        -0.292261         0.708417         0.827151
 H         0.142284         2.144482        -0.206401
 H        -0.673419         0.876301        -0.853597
 H         2.407090        -0.968200        -1.889555
 H         2.940989         0.707014        -1.750396
 H         2.769298        -2.614512         0.089708
 H         2.853117        -1.983208         1.723466
 H         4.522132         1.906435         1.091336
 H         4.063597         2.027319        -0.618875
 H         2.590755         0.835397         1.903931
