19
Iteration:   406
 C         0.222881         0.970015        -0.178601
 C         1.495885         0.205014        -0.008152
 C         2.452158        -0.167696        -1.231525
 C         3.319968        -0.400622         0.058408
 C         2.776485        -1.709812         0.558398
 O         1.337036        -1.107640         0.432066
 O         4.704773         0.215980         0.128950
 C         3.927942         1.490385         0.512887
 C         2.619836         0.774987         0.842967
 H        -0.265794         1.052441         0.815800
 H         0.613642         2.011619        -0.457481
 H        -0.421341         0.667726        -1.017929
 H         1.802698        -0.938820        -1.692951
 H         2.652452         0.750492        -1.808369
 H         2.974361        -2.546192        -0.245775
 H         2.979420        -2.037575         1.637827
 H         4.286283         1.973070         1.440065
 H         3.888984         2.231076        -0.233509
 H         2.330780         0.663147         2.026437
