19
Iteration:  2650charge 0 multiplicity 1
 C         0.043848         0.872943        -0.289576
 C         1.498494         0.287559        -0.007718
 C         2.353060        -0.081063        -1.233290
 C         3.434327        -0.400870        -0.029737
 C         2.663544        -1.626354         0.614173
 O         1.264094        -0.978216         0.648895
 O         4.748230         0.083952         0.096416
 C         4.106869         1.457714         0.525850
 C         2.733445         0.725736         0.746577
 H        -0.345193         0.870055         0.731522
 H         0.161468         2.000786        -0.540971
 H        -0.397580         0.103066        -0.905330
 H         2.043669        -0.890547        -1.913566
 H         2.560595         0.918162        -1.795331
 H         2.588055        -2.590384         0.032199
 H         3.133413        -1.721450         1.629658
 H         4.501098         1.726324         1.435822
 H         4.260289         2.226502        -0.214114
 H         2.584096         0.351233         1.796897
