19
Iteration:  4758
 C         0.100111         0.855528        -0.163695
 C         1.476238         0.292906        -0.035402
 C         2.398224        -0.029364        -1.201164
 C         3.243843        -0.428270         0.055454
 C         2.680940        -1.702066         0.560767
 O         1.300685        -1.031133         0.546179
 O         4.683765         0.115170         0.050343
 C         4.150218         1.377960         0.446837
 C         2.741612         0.846909         0.854668
 H        -0.370741         0.882625         0.766900
 H         0.317814         1.880754        -0.205416
 H        -0.509146         0.593503        -1.019231
 H         2.151254        -0.788284        -1.980966
 H         2.950603         0.731711        -1.699510
 H         2.930944        -2.560707        -0.153884
 H         2.814627        -2.015505         1.611651
 H         4.703995         1.746047         1.307013
 H         4.382725         2.225599        -0.217406
 H         2.665541         0.905321         1.931249
