19
Iteration:  1932charge 0 multiplicity 1
 C         0.067858         0.869397        -0.266922
 C         1.477730         0.331987        -0.007541
 C         2.467987        -0.010177        -1.188824
 C         3.287353        -0.366528         0.051838
 C         2.710920        -1.647562         0.567316
 O         1.270509        -1.061125         0.519221
 O         4.710674         0.073056         0.130792
 C         4.111834         1.387458         0.484450
 C         2.751427         0.781802         0.851776
 H        -0.413216         0.491222         0.620502
 H         0.008381         1.934516        -0.426280
 H        -0.386394         0.201343        -1.026217
 H         2.284263        -0.815818        -1.884407
 H         2.701924         0.905326        -1.826854
 H         2.835436        -2.470358        -0.131145
 H         2.934611        -1.877872         1.629827
 H         4.517266         2.019455         1.258906
 H         4.216360         2.044920        -0.402282
 H         2.390796         0.730737         1.981608
