19
Iteration:  4011charge 0 multiplicity 1
 C         0.095633         0.945692        -0.304240
 C         1.511682         0.353379        -0.021329
 C         2.452982        -0.002343        -1.170354
 C         3.276576        -0.415512        -0.002555
 C         2.687545        -1.660386         0.598660
 O         1.358039        -1.045437         0.650047
 O         4.626776         0.008060         0.039278
 C         4.098928         1.417047         0.460544
 C         2.701877         0.766521         0.862768
 H        -0.475321         1.041817         0.651524
 H        -0.102577         1.863688        -0.855052
 H        -0.321475         0.062519        -0.703314
 H         2.243706        -0.695665        -1.994382
 H         3.038460         0.871813        -1.538407
 H         2.735634        -2.580322        -0.131575
 H         3.085099        -1.862388         1.627573
 H         4.753306         1.704673         1.300428
 H         4.143249         2.223502        -0.324206
 H         2.526147         0.625127         1.954519
