19
Iteration:  2367
 C         0.025533         0.826379        -0.248165
 C         1.404812         0.343087        -0.054685
 C         2.427421         0.004508        -1.199642
 C         3.367739        -0.370355         0.062279
 C         2.684192        -1.612797         0.520572
 O         1.349033        -0.973847         0.626105
 O         4.741483         0.048379         0.178758
 C         4.117785         1.389375         0.458648
 C         2.743356         0.718428         0.774933
 H        -0.452030         1.140164         0.666683
 H         0.055036         1.662746        -1.003169
 H        -0.519567        -0.015519        -0.708018
 H         1.860375        -0.853205        -1.706948
 H         2.764527         0.724531        -1.880288
 H         2.735782        -2.333141        -0.257808
 H         3.066672        -2.081859         1.479732
 H         4.609753         1.753111         1.423355
 H         3.990989         2.133338        -0.397814
 H         2.484920         0.608635         1.842813
