19
Iteration:  4911charge 0 multiplicity 1
 C         0.167311         0.976203        -0.152831
 C         1.554502         0.345385        -0.028859
 C         2.461285        -0.056213        -1.185481
 C         3.261869        -0.393553         0.097476
 C         2.688013        -1.679478         0.494694
 O         1.320419        -1.098874         0.634980
 O         4.626080         0.065243         0.015571
 C         4.103870         1.397091         0.426688
 C         2.691056         0.827919         0.855118
 H        -0.606856         0.721769         0.594979
 H         0.189542         2.049659        -0.431302
 H        -0.377340         0.478162        -1.046926
 H         2.327511        -0.946592        -1.897373
 H         2.802328         0.884254        -1.600054
 H         2.724118        -2.566248        -0.184261
 H         2.996742        -2.141652         1.442199
 H         4.724561         1.703796         1.259718
 H         3.959861         2.089242        -0.391995
 H         2.270366         0.768522         1.864815
