19
Iteration:  2163
 C         0.235209         1.018656        -0.182883
 C         1.504251         0.314614        -0.029061
 C         2.404891        -0.190769        -1.192678
 C         3.319511        -0.432080         0.068755
 C         2.696264        -1.738580         0.519584
 O         1.278311        -1.128162         0.463161
 O         4.727260         0.224509         0.166290
 C         3.998599         1.535226         0.485242
 C         2.697505         0.690631         0.812159
 H        -0.110562         1.401639         0.753820
 H         0.483658         1.903803        -0.835070
 H        -0.537754         0.386404        -0.472426
 H         1.844393        -1.056103        -1.622522
 H         2.649179         0.453534        -1.970771
 H         2.770414        -2.686389        -0.055276
 H         2.970917        -1.847138         1.568644
 H         4.528354         2.170733         1.308657
 H         3.882512         2.296398        -0.348674
 H         2.446180         0.572305         1.924441
