19
Iteration:  1371
 C         0.094656         0.852363        -0.259025
 C         1.465764         0.290740        -0.027595
 C         2.432261        -0.012419        -1.180639
 C         3.389913        -0.391437         0.103282
 C         2.609193        -1.636822         0.558403
 O         1.329362        -1.106456         0.480890
 O         4.711530         0.074875         0.132311
 C         4.098625         1.525541         0.489552
 C         2.695142         0.783883         0.830579
 H        -0.304278         0.949093         0.739291
 H         0.194191         1.858120        -0.769414
 H        -0.547505         0.109450        -0.757748
 H         2.131825        -0.745768        -1.943544
 H         2.882102         0.715098        -1.772650
 H         2.602132        -2.585477        -0.055644
 H         2.853186        -1.926320         1.578196
 H         4.724600         1.826968         1.446662
 H         4.027646         2.190144        -0.372168
 H         2.644901         0.682660         2.017301
