19
Iteration:  2387charge 0 multiplicity 1
 C         0.052742         0.897333        -0.284619
 C         1.454134         0.359765         0.025243
 C         2.434568        -0.110099        -1.209784
 C         3.362268        -0.388903         0.023436
 C         2.647695        -1.687084         0.568834
 O         1.311802        -1.102581         0.568453
 O         4.669221         0.119994         0.095371
 C         4.162337         1.443449         0.511768
 C         2.723619         0.831476         0.853091
 H        -0.408524         0.984216         0.650525
 H         0.013134         1.857968        -0.733125
 H        -0.488795         0.183022        -0.926922
 H         2.135834        -0.858256        -2.019315
 H         2.802771         0.777585        -1.764206
 H         2.652928        -2.627463         0.039793
 H         3.130931        -1.872760         1.554124
 H         4.735839         1.738688         1.358269
 H         4.258773         2.060912        -0.483236
 H         2.708851         0.837805         1.947648
