19
Iteration:  1714
 C         0.239105         1.023804        -0.180790
 C         1.496540         0.185609        -0.141493
 C         2.487649        -0.130559        -1.195685
 C         3.368625        -0.435814         0.057397
 C         2.663746        -1.627716         0.544903
 O         1.323815        -1.101715         0.550081
 O         4.656573         0.177426         0.120672
 C         3.960510         1.488137         0.525955
 C         2.643730         0.740872         0.833210
 H        -0.305511         1.175180         0.799573
 H         0.658815         1.967469        -0.525444
 H        -0.489076         0.544740        -0.944969
 H         2.170339        -1.048288        -1.776163
 H         2.928648         0.637496        -1.673314
 H         2.611699        -2.521374        -0.108110
 H         3.158347        -1.965669         1.395983
 H         4.323322         2.029041         1.318126
 H         3.827462         2.028366        -0.366677
 H         2.399181         0.520082         1.924510
