19
Iteration:  1266charge 0 multiplicity 1
 C         0.221342         0.940261        -0.144098
 C         1.536278         0.258421        -0.044172
 C         2.519975        -0.050482        -1.263240
 C         3.377734        -0.472924         0.016967
 C         2.675060        -1.707777         0.612280
 O         1.290928        -1.089581         0.463175
 O         4.651260         0.118700         0.187216
 C         3.949129         1.507643         0.407261
 C         2.600917         0.766146         0.873699
 H        -0.218488         0.756929         0.880984
 H         0.499446         1.992008        -0.174093
 H        -0.401216         0.675133        -1.023100
 H         2.130329        -0.821398        -1.927674
 H         2.816604         0.945574        -1.763841
 H         2.982162        -2.619586         0.077826
 H         3.074103        -1.852354         1.628880
 H         4.387885         2.129851         1.138197
 H         4.057535         2.099828        -0.512634
 H         2.316571         0.836906         1.861057
