19
Iteration:  4578
 C         0.089398         0.817627        -0.197385
 C         1.519439         0.318791        -0.068193
 C         2.446262         0.032466        -1.171569
 C         3.328547        -0.371731         0.051214
 C         2.644412        -1.595358         0.610790
 O         1.306998        -1.035214         0.562588
 O         4.634848         0.034025         0.042572
 C         4.141304         1.410524         0.444645
 C         2.754445         0.754744         0.840082
 H        -0.482486         0.703298         0.763726
 H         0.101884         1.957230        -0.216408
 H        -0.346792         0.337680        -1.049123
 H         2.269878        -0.843011        -1.864426
 H         2.796973         0.956992        -1.615266
 H         2.754895        -2.409659        -0.162910
 H         2.842303        -2.094101         1.608314
 H         4.662062         1.844236         1.303147
 H         3.849088         2.051628        -0.420760
 H         2.685737         0.620968         1.950884
