19
Iteration:   535charge 0 multiplicity 1
 C         0.220773         0.970561        -0.205719
 C         1.505811         0.320801        -0.077950
 C         2.480348        -0.108885        -1.148185
 C         3.366782        -0.434761         0.151882
 C         2.755264        -1.719657         0.582545
 O         1.304653        -1.157890         0.401700
 O         4.623737         0.252893         0.059730
 C         4.020187         1.503597         0.465005
 C         2.596871         0.678044         0.920427
 H        -0.309170         0.800902         0.688224
 H         0.505252         2.062862        -0.188971
 H        -0.443668         0.646080        -1.019460
 H         2.122238        -0.938811        -1.883848
 H         2.888899         0.766886        -1.731140
 H         2.737787        -2.622975         0.027338
 H         3.084897        -1.977782         1.605085
 H         4.441884         1.883478         1.360589
 H         3.767653         2.329343        -0.360424
 H         2.286493         0.523520         1.955198
