19
Iteration:  2640
 C         0.158894         0.868337        -0.172900
 C         1.457583         0.251697        -0.078726
 C         2.362700        -0.108538        -1.226290
 C         3.338205        -0.413782        -0.061064
 C         2.692012        -1.581960         0.654953
 O         1.324399        -1.004727         0.598505
 O         4.696569         0.116215         0.125610
 C         4.107360         1.421840         0.499718
 C         2.696939         0.756825         0.753864
 H        -0.515295         0.812731         0.691269
 H         0.206216         1.949103        -0.596175
 H        -0.458363         0.518118        -0.987300
 H         2.101274        -0.760842        -2.048485
 H         2.907913         0.821798        -1.650426
 H         2.618286        -2.520662         0.005368
 H         2.826988        -1.903701         1.745223
 H         4.584860         1.753144         1.399766
 H         4.225990         2.081781        -0.346295
 H         2.691861         0.642467         1.864624
