19
Iteration:  3366charge 0 multiplicity 1
 C         0.225025         1.002259        -0.212651
 C         1.533393         0.373135         0.011282
 C         2.469088        -0.079282        -1.134016
 C         3.335990        -0.394850         0.072304
 C         2.656066        -1.718236         0.565078
 O         1.317528        -1.143851         0.503313
 O         4.665632         0.107254         0.060290
 C         3.945820         1.451212         0.403564
 C         2.705099         0.803344         0.907421
 H        -0.068758         1.151036         0.820071
 H         0.036181         1.883788        -0.860348
 H        -0.411426         0.249366        -0.711159
 H         1.962133        -0.886961        -1.664417
 H         2.834940         0.645906        -1.802521
 H         2.859807        -2.474304        -0.258427
 H         2.729506        -2.290188         1.555454
 H         4.598407         1.911853         1.113851
 H         3.875346         2.030366        -0.472909
 H         2.697040         0.626124         2.005153
