19
Iteration:  4959charge 0 multiplicity 1
 C         0.202621         1.049291        -0.083950
 C         1.513168         0.270055        -0.059989
 C         2.500328        -0.034677        -1.228108
 C         3.367733        -0.449599        -0.039672
 C         2.670961        -1.608417         0.597725
 O         1.282810        -1.105942         0.531224
 O         4.665748         0.147773         0.089031
 C         3.983212         1.396933         0.402540
 C         2.653091         0.657141         0.870910
 H        -0.059752         1.174336         0.954483
 H         0.384629         1.980653        -0.599969
 H        -0.658735         0.659210        -0.468873
 H         2.101288        -0.889424        -1.729288
 H         3.014376         0.643197        -1.977400
 H         2.673745        -2.610817         0.182698
 H         2.953979        -1.859263         1.634146
 H         4.368592         2.034663         1.229063
 H         3.997275         1.997893        -0.511432
 H         2.641182         0.340712         1.941509
