19
Iteration:  1142
 C         0.174607         0.966439        -0.132975
 C         1.531703         0.254347        -0.099044
 C         2.507670        -0.128718        -1.193775
 C         3.334784        -0.353993         0.082097
 C         2.675330        -1.749611         0.553989
 O         1.366586        -1.131163         0.481149
 O         4.640991         0.142952         0.193642
 C         3.939314         1.494362         0.447342
 C         2.647951         0.822877         0.761708
 H         0.068087         1.196984         0.928309
 H         0.509751         1.931856        -0.644291
 H        -0.708952         0.377536        -0.457717
 H         2.306662        -0.803915        -2.017546
 H         2.859169         0.775823        -1.656801
 H         2.897240        -2.559493        -0.303259
 H         2.816986        -2.114457         1.581212
 H         4.273543         2.103021         1.438594
 H         3.951034         2.016854        -0.498943
 H         2.456599         0.726193         1.897694
