19
Iteration:   685charge 0 multiplicity 1
 C         0.223073         0.974255        -0.215267
 C         1.497201         0.254668        -0.063408
 C         2.446979        -0.100793        -1.137967
 C         3.416854        -0.409553         0.029588
 C         2.741343        -1.750682         0.513151
 O         1.293090        -1.158380         0.509775
 O         4.660645         0.247877         0.139641
 C         3.937763         1.492355         0.522470
 C         2.622559         0.734955         0.853872
 H        -0.288915         1.202976         0.713786
 H         0.608631         1.990724        -0.634664
 H        -0.393794         0.659326        -1.129453
 H         1.941877        -0.998547        -1.648775
 H         2.668543         0.713317        -1.826082
 H         2.746829        -2.515925        -0.306408
 H         3.314441        -2.062831         1.420684
 H         4.413491         1.921603         1.376082
 H         3.991149         2.219371        -0.216477
 H         2.395787         0.603621         1.931155
