19
Iteration:  2274
 C         0.219428         0.998333        -0.219042
 C         1.487316         0.212624        -0.073836
 C         2.493833        -0.007508        -1.239208
 C         3.381780        -0.469932         0.073098
 C         2.686019        -1.718847         0.630474
 O         1.345873        -1.069341         0.626692
 O         4.694687         0.145219         0.096530
 C         3.936352         1.427339         0.451808
 C         2.597871         0.744772         0.735084
 H        -0.288359         0.937233         0.776194
 H         0.504836         2.055731        -0.263146
 H        -0.411380         0.771913        -1.006033
 H         2.278136        -0.772178        -2.006509
 H         2.762077         1.013816        -1.526844
 H         2.439880        -2.676815         0.070437
 H         2.993029        -2.014168         1.601987
 H         4.560829         1.876337         1.238858
 H         3.804693         2.176888        -0.492434
 H         2.367217         0.681449         1.832441
