19
Iteration:  4440
 C         0.066395         0.903340        -0.208414
 C         1.444078         0.288529        -0.090719
 C         2.430672        -0.009422        -1.210417
 C         3.339797        -0.429647         0.016271
 C         2.678246        -1.708479         0.583535
 O         1.336562        -1.051531         0.630365
 O         4.712198         0.077714         0.058865
 C         4.210965         1.379484         0.469541
 C         2.669056         0.930002         0.863514
 H        -0.426414         0.817553         0.757346
 H        -0.006002         1.911259        -0.627524
 H        -0.562851         0.215118        -0.905092
 H         1.898831        -0.662858        -1.891388
 H         2.731929         0.943226        -1.653266
 H         2.484754        -2.563771        -0.027908
 H         2.984932        -2.166737         1.487714
 H         4.685093         1.804398         1.338243
 H         4.076941         1.927592        -0.379211
 H         2.577314         0.622956         1.891848
