19
Iteration:   726
 C         0.105851         0.874447        -0.214397
 C         1.490824         0.314763        -0.074924
 C         2.509691         0.045633        -1.158545
 C         3.400907        -0.483948        -0.023171
 C         2.772849        -1.651595         0.595864
 O         1.305072        -1.065663         0.466147
 O         4.679422         0.196887         0.161571
 C         3.952135         1.385495         0.440910
 C         2.659798         0.680184         0.871651
 H        -0.374543         0.475947         0.643289
 H         0.119069         1.924632        -0.118079
 H        -0.498127         0.563107        -1.044969
 H         2.374156        -0.796405        -1.879916
 H         2.941330         0.931244        -1.496834
 H         2.653697        -2.636035         0.075541
 H         2.719716        -1.792033         1.672276
 H         4.524013         1.920540         1.326853
 H         3.895453         2.100912        -0.459394
 H         2.480180         0.739564         2.080638
