19
Iteration:   185charge 0 multiplicity 1
 C         0.108470         0.811121        -0.237633
 C         1.476057         0.336518        -0.013970
 C         2.409264        -0.023513        -1.156568
 C         3.344637        -0.338881        -0.009916
 C         2.717717        -1.603509         0.494573
 O         1.304489        -1.149008         0.567840
 O         4.680920         0.130995         0.055805
 C         4.118751         1.378342         0.590332
 C         2.662714         0.853599         0.800502
 H        -0.538577         0.508166         0.665487
 H         0.013055         1.934444        -0.289215
 H        -0.311855         0.209035        -1.099493
 H         2.226722        -0.817687        -1.840275
 H         2.842509         0.851983        -1.595357
 H         2.795607        -2.549893        -0.128728
 H         3.051232        -1.751684         1.554485
 H         4.570208         1.709449         1.505816
 H         4.256520         2.166643        -0.230352
 H         2.563773         0.576397         1.965034
