19
Iteration:  4777
 C         0.144227         1.032385        -0.152828
 C         1.537276         0.336439        -0.033817
 C         2.480577         0.003353        -1.144673
 C         3.362766        -0.408142         0.029996
 C         2.668491        -1.658074         0.567192
 O         1.318546        -1.119977         0.595821
 O         4.662572         0.081693         0.013038
 C         4.015449         1.407949         0.461465
 C         2.679061         0.676787         0.817661
 H        -0.415906         0.874732         0.770459
 H         0.117099         2.048137        -0.558601
 H        -0.377930         0.365717        -0.946412
 H         2.180596        -0.737604        -1.865747
 H         2.773395         0.827419        -1.828461
 H         2.619174        -2.597973         0.037287
 H         2.940632        -1.887344         1.601574
 H         4.608683         1.924306         1.159316
 H         4.062857         2.030379        -0.409367
 H         2.430074         0.584678         1.856472
