19
Iteration:   166charge 0 multiplicity 1
 C         0.072666         0.780293        -0.249365
 C         1.468064         0.242481        -0.029465
 C         2.475907         0.109195        -1.185612
 C         3.359226        -0.373201         0.162194
 C         2.671039        -1.706829         0.555538
 O         1.351184        -1.127999         0.551980
 O         4.638556         0.131867        -0.019189
 C         4.116628         1.436685         0.478330
 C         2.656954         0.813346         0.890924
 H        -0.456085         0.913610         0.648364
 H         0.376935         1.835080        -0.628329
 H        -0.590044         0.359544        -1.021816
 H         2.318550        -0.627925        -1.953045
 H         2.805373         1.081565        -1.456161
 H         2.817948        -2.433444        -0.185928
 H         2.942879        -2.171435         1.459952
 H         4.607629         1.591686         1.537596
 H         4.389378         2.271174        -0.202792
 H         2.391957         1.000800         1.902075
