19
Iteration:   992charge 0 multiplicity 1
 C         0.152969         0.970141        -0.124809
 C         1.476219         0.301542        -0.102502
 C         2.496121        -0.122242        -1.164565
 C         3.372725        -0.467808         0.096020
 C         2.765699        -1.683706         0.529596
 O         1.317639        -1.187208         0.409052
 O         4.618986         0.166929         0.150482
 C         3.970328         1.492568         0.474784
 C         2.645987         0.809178         0.860340
 H         0.166246         1.343964         0.841974
 H         0.297978         1.823017        -0.776198
 H        -0.731094         0.480772        -0.426415
 H         2.325660        -0.807867        -2.025150
 H         2.941562         0.801632        -1.479470
 H         2.971644        -2.565286        -0.003133
 H         2.895020        -1.894872         1.588464
 H         4.519839         2.072355         1.230641
 H         4.031743         2.151051        -0.528883
 H         2.319266         0.826530         1.893225
