19
Iteration:  2092
 C        -0.001661         0.849472        -0.200503
 C         1.413149         0.366989        -0.104949
 C         2.392603        -0.085980        -1.141961
 C         3.399377        -0.390798         0.014539
 C         2.754832        -1.590398         0.515530
 O         1.292607        -0.999156         0.525106
 O         4.739054         0.090033         0.145727
 C         4.122666         1.419334         0.534117
 C         2.701095         0.745809         0.805113
 H        -0.665482         0.505669         0.660378
 H        -0.083481         1.907061        -0.372150
 H        -0.437465         0.256787        -1.090187
 H         2.308742        -1.007198        -1.726609
 H         3.062082         0.536591        -1.784209
 H         2.614348        -2.551159         0.002757
 H         2.995332        -1.738921         1.614760
 H         4.710271         1.729148         1.349977
 H         4.322369         2.147211        -0.169672
 H         2.570225         0.505857         1.814712
