19
Iteration:  2304
 C         0.178092         1.057946        -0.157965
 C         1.482889         0.292153        -0.032368
 C         2.463828        -0.178045        -1.189685
 C         3.361411        -0.390753         0.057431
 C         2.678044        -1.643642         0.633667
 O         1.313938        -1.155567         0.417834
 O         4.691073         0.191155         0.127381
 C         4.006186         1.469544         0.471212
 C         2.655615         0.681658         0.793290
 H        -0.271133         1.255388         0.871311
 H         0.422111         2.114158        -0.631227
 H        -0.592425         0.514948        -0.719897
 H         2.057777        -1.172659        -1.522135
 H         2.704311         0.489561        -1.942859
 H         2.653864        -2.597011         0.043213
 H         2.952831        -1.784767         1.711326
 H         4.823466         2.012837         1.069595
 H         3.815487         2.070699        -0.307511
 H         2.729308         0.570181         1.890470
