19
Iteration:  2240
 C         0.123110         0.836936        -0.272779
 C         1.501383         0.363657         0.047865
 C         2.360800        -0.059283        -1.184403
 C         3.400402        -0.407453         0.068182
 C         2.672075        -1.683632         0.561237
 O         1.246018        -1.069764         0.517145
 O         4.688090         0.093517         0.116867
 C         4.136735         1.469124         0.472404
 C         2.767501         0.850168         0.845313
 H        -0.514491         0.586269         0.604023
 H         0.026106         1.942252        -0.480110
 H        -0.253497         0.281296        -1.077877
 H         2.052425        -0.941327        -1.812968
 H         2.692941         0.634233        -1.882985
 H         2.499754        -2.545187        -0.156222
 H         2.930591        -1.994539         1.567147
 H         4.746048         2.037821         1.292594
 H         4.068278         2.097848        -0.468070
 H         2.553048         0.601422         1.917226
