19
Iteration:  4067
 C         0.207788         1.061829        -0.042629
 C         1.540726         0.252716        -0.094827
 C         2.569710        -0.083815        -1.294086
 C         3.358098        -0.424515         0.016863
 C         2.597391        -1.688750         0.607470
 O         1.241365        -1.062766         0.576146
 O         4.682217         0.180544         0.157439
 C         3.950068         1.387186         0.330496
 C         2.676526         0.674320         0.792564
 H        -0.195347         0.969300         0.966511
 H         0.400654         2.080084        -0.376852
 H        -0.563672         0.835384        -0.739668
 H         2.229778        -1.016156        -1.631555
 H         3.249821         0.551917        -1.922182
 H         2.823893        -2.723297         0.089845
 H         2.947978        -1.809797         1.724838
 H         4.468195         1.992781         1.156038
 H         3.837456         2.021939        -0.596513
 H         2.504711         0.576012         1.896739
