19
Iteration:   526
 C         0.218100         0.943019        -0.179506
 C         1.570962         0.219756        -0.067307
 C         2.550316        -0.013566        -1.238101
 C         3.350275        -0.416966         0.074067
 C         2.726042        -1.754031         0.607823
 O         1.258859        -1.169475         0.450685
 O         4.610675         0.208469         0.086186
 C         3.978023         1.511905         0.514602
 C         2.620755         0.732882         0.892067
 H        -0.208911         0.800045         0.770688
 H         0.314910         2.002736        -0.312511
 H        -0.403337         0.657990        -0.975858
 H         2.179453        -0.743544        -1.945907
 H         2.809223         0.928520        -1.806726
 H         2.791968        -2.675628        -0.002347
 H         2.977176        -1.799466         1.675325
 H         4.609999         2.024594         1.183981
 H         3.760852         2.132878        -0.354017
 H         2.369654         0.875961         2.027691
