19
Iteration:    30charge 0 multiplicity 1
 C         0.092109         0.878076        -0.273640
 C         1.488080         0.262286        -0.066019
 C         2.464706         0.004096        -1.145819
 C         3.362292        -0.369800         0.052346
 C         2.672318        -1.654213         0.437539
 O         1.379310        -1.125125         0.702014
 O         4.652457         0.133958         0.080882
 C         4.061951         1.389009         0.517970
 C         2.669818         0.809783         0.811708
 H        -0.571502         0.469991         0.617808
 H         0.059218         1.952824        -0.454764
 H        -0.476671         0.445800        -1.145747
 H         2.328142        -0.608331        -2.008269
 H         2.696012         0.987474        -1.560723
 H         2.709147        -2.489166        -0.242884
 H         3.160265        -2.028412         1.356416
 H         4.591880         1.670242         1.404084
 H         4.154890         2.210930        -0.372143
 H         2.395777         0.924695         1.973421
