19
Iteration:  2164
 C         0.243046         1.015254        -0.175595
 C         1.498653         0.317640        -0.031301
 C         2.411038        -0.190406        -1.191527
 C         3.315962        -0.439417         0.057349
 C         2.700503        -1.735821         0.527570
 O         1.277403        -1.128504         0.464311
 O         4.726018         0.226895         0.167369
 C         3.994260         1.531020         0.496707
 C         2.697624         0.697749         0.802374
 H        -0.113268         1.413142         0.761771
 H         0.475175         1.876052        -0.838330
 H        -0.504263         0.381596        -0.480549
 H         1.833417        -1.052617        -1.632124
 H         2.624651         0.463746        -1.952788
 H         2.778519        -2.659667        -0.069972
 H         2.934026        -1.868726         1.555211
 H         4.503164         2.141838         1.286366
 H         3.914667         2.288943        -0.375241
 H         2.457442         0.598458         1.907958
