19
Iteration:  2453charge 0 multiplicity 1
 C         0.264416         1.093514        -0.147515
 C         1.524539         0.221016        -0.064550
 C         2.368324        -0.204504        -1.227570
 C         3.354757        -0.451776         0.133000
 C         2.668172        -1.663448         0.571313
 O         1.333452        -1.127114         0.502679
 O         4.729951         0.168421         0.237554
 C         3.974388         1.507395         0.353771
 C         2.672725         0.758356         0.750484
 H        -0.169260         0.854802         0.781038
 H         0.361048         2.176426        -0.243190
 H        -0.433050         0.746681        -0.906477
 H         1.896886        -1.025023        -1.869700
 H         2.511013         0.631343        -1.854522
 H         2.678563        -2.491704        -0.111080
 H         2.874635        -2.116730         1.571434
 H         4.441366         1.967484         1.199922
 H         3.731937         2.162175        -0.565498
 H         2.460634         0.814403         1.827207
