19
Iteration:  4875charge 0 multiplicity 1
 C         0.097166         0.884363        -0.140178
 C         1.518057         0.308559         0.014713
 C         2.359849         0.038337        -1.230280
 C         3.412749        -0.448267        -0.045002
 C         2.568246        -1.625749         0.608296
 O         1.231161        -1.052874         0.562393
 O         4.752741         0.106013         0.105743
 C         4.172646         1.387488         0.460244
 C         2.782585         0.703886         0.807961
 H        -0.461758         0.877469         0.835276
 H        -0.047198         1.928974        -0.535771
 H        -0.136106         0.047253        -1.007582
 H         2.094197        -0.764127        -2.033965
 H         2.590458         1.041000        -1.757868
 H         2.666762        -2.461334        -0.066342
 H         2.753406        -1.725110         1.691501
 H         4.611894         2.095231         1.151088
 H         4.007546         2.100751        -0.428900
 H         2.535859         0.534185         1.853243
