19
Iteration:  3143charge 0 multiplicity 1
 C         0.148328         0.925039        -0.169705
 C         1.498533         0.315205        -0.001667
 C         2.413623        -0.097262        -1.156964
 C         3.428624        -0.381588         0.057347
 C         2.642931        -1.636257         0.502635
 O         1.263840        -1.110861         0.547843
 O         4.700701         0.066109         0.181381
 C         4.097496         1.434740         0.359014
 C         2.672202         0.848132         0.813792
 H        -0.415204         1.019213         0.826713
 H         0.397087         1.945792        -0.449179
 H        -0.551123         0.246554        -0.809786
 H         2.063989        -1.000781        -1.776845
 H         2.701045         0.814515        -1.810428
 H         2.624338        -2.451071        -0.358596
 H         3.033079        -2.082946         1.508710
 H         4.656956         1.992961         1.130906
 H         3.986904         1.989155        -0.611100
 H         2.539202         0.855417         1.930251
