19
Iteration:  4664charge 0 multiplicity 1
 C         0.196223         1.090509        -0.173673
 C         1.492407         0.295149        -0.047809
 C         2.370173        -0.145194        -1.168943
 C         3.387427        -0.409200         0.068968
 C         2.711954        -1.741241         0.562976
 O         1.294166        -1.131167         0.501348
 O         4.697600         0.177070         0.067750
 C         4.022478         1.484343         0.393152
 C         2.696035         0.635166         0.909247
 H        -0.003525         1.511037         0.899419
 H         0.147829         2.144337        -0.636742
 H        -0.602358         0.497796        -0.577443
 H         1.989702        -0.756580        -2.013594
 H         2.903085         0.649698        -1.669721
 H         2.824431        -2.577685        -0.064624
 H         2.774297        -2.098932         1.581451
 H         4.417839         2.079507         1.231848
 H         4.015806         2.253818        -0.309658
 H         2.435419         0.551879         2.019557
