19
Iteration:  1744
 C         0.153229         1.015604        -0.193300
 C         1.481911         0.317964        -0.066776
 C         2.464824        -0.081535        -1.152495
 C         3.405015        -0.476454         0.077276
 C         2.681915        -1.687582         0.610174
 O         1.274928        -1.147527         0.456001
 O         4.681209         0.218748         0.124600
 C         4.026307         1.442869         0.459538
 C         2.704916         0.710038         0.825681
 H        -0.617804         0.856414         0.617987
 H         0.324239         2.046746        -0.426357
 H        -0.380820         0.580866        -1.119645
 H         2.093288        -0.898860        -1.871467
 H         2.979771         0.674923        -1.722629
 H         2.716472        -2.680636         0.104732
 H         3.171511        -1.841865         1.622422
 H         4.371869         2.054524         1.316093
 H         3.877180         2.074903        -0.387795
 H         2.438795         0.612152         1.951759
