19
Iteration:  4431charge 0 multiplicity 1
 C         0.126743         0.895137        -0.221197
 C         1.445216         0.272756        -0.041066
 C         2.405179         0.017175        -1.152668
 C         3.353833        -0.465043         0.018390
 C         2.614435        -1.654334         0.558383
 O         1.307190        -1.045245         0.649158
 O         4.735190         0.107945         0.052515
 C         4.133226         1.358384         0.423967
 C         2.658982         0.818004         0.814895
 H        -0.401726         0.822633         0.766451
 H         0.137058         1.982027        -0.437444
 H        -0.347198         0.186899        -1.045812
 H         2.425814        -0.705583        -1.945372
 H         2.602301         1.053011        -1.605387
 H         2.640781        -2.600075        -0.083797
 H         3.094306        -1.803823         1.582567
 H         4.823317         1.688291         1.243742
 H         4.277877         2.206923        -0.301739
 H         2.503899         0.770125         1.889428
