19
Iteration:  2357charge 0 multiplicity 1
 C         0.077203         0.782093        -0.246542
 C         1.497624         0.307499        -0.015458
 C         2.424258         0.003744        -1.265644
 C         3.388435        -0.420292         0.014500
 C         2.654274        -1.639402         0.495780
 O         1.322067        -0.976382         0.636171
 O         4.718755         0.065053         0.172875
 C         4.059434         1.382090         0.486621
 C         2.672830         0.814884         0.836016
 H        -0.247643         1.226217         0.723183
 H         0.081495         1.697061        -0.964451
 H        -0.693043         0.063234        -0.545464
 H         2.233905        -0.744504        -2.109367
 H         2.820221         0.829418        -1.764352
 H         2.470883        -2.522486        -0.100851
 H         3.086959        -1.911284         1.520563
 H         4.727953         1.950784         1.271053
 H         4.177863         1.921536        -0.474754
 H         2.688280         0.814807         1.939863
