19
Iteration:  1784
 C         0.100784         0.804732        -0.258846
 C         1.503616         0.325882        -0.024534
 C         2.461894        -0.009946        -1.207801
 C         3.295125        -0.394955         0.036995
 C         2.689010        -1.634138         0.548588
 O         1.304818        -1.070244         0.537551
 O         4.683016         0.105478         0.171835
 C         4.137370         1.419087         0.505511
 C         2.645597         0.798789         0.788422
 H        -0.312625         0.753725         0.726797
 H         0.178214         1.894370        -0.432454
 H        -0.462561         0.226263        -0.925118
 H         2.132400        -0.726065        -1.902337
 H         2.905992         0.995622        -1.522468
 H         2.670566        -2.518504        -0.082110
 H         2.921178        -2.044687         1.531949
 H         4.777645         1.860344         1.368885
 H         4.229917         1.986325        -0.482731
 H         2.440187         0.806209         1.807194
