19
Iteration:  3357charge 0 multiplicity 1
 C         0.227860         1.057708        -0.166359
 C         1.526809         0.348908        -0.014783
 C         2.451594        -0.132185        -1.095898
 C         3.299554        -0.425670         0.103765
 C         2.681370        -1.679809         0.536641
 O         1.312339        -1.161872         0.479831
 O         4.655920         0.179162         0.086154
 C         3.985224         1.449293         0.323069
 C         2.670676         0.670042         0.880784
 H        -0.290063         1.520761         0.782613
 H         0.459049         2.030193        -0.818919
 H        -0.468814         0.298934        -0.671928
 H         2.063332        -0.963962        -1.692542
 H         2.991156         0.678574        -1.580982
 H         2.829192        -2.540432        -0.190155
 H         3.010630        -1.937412         1.638395
 H         4.577655         1.947433         1.193459
 H         3.887015         2.195585        -0.426855
 H         2.616981         0.540977         1.999147
