19
Iteration:  2404
 C         0.193587         0.903154        -0.194588
 C         1.535426         0.212004        -0.108220
 C         2.459703         0.007776        -1.151935
 C         3.321337        -0.419806         0.089318
 C         2.662093        -1.607248         0.675212
 O         1.272906        -1.083658         0.552959
 O         4.678960         0.128942         0.007689
 C         4.050240         1.422289         0.439632
 C         2.666951         0.741886         0.817922
 H        -0.477242         0.944046         0.754834
 H         0.441380         1.965789        -0.523593
 H        -0.423850         0.515139        -1.039417
 H         2.277690        -0.789882        -1.855521
 H         2.885442         0.873714        -1.750579
 H         2.792662        -2.558083         0.042949
 H         2.732428        -1.888764         1.713998
 H         4.552952         1.814949         1.389560
 H         4.137397         2.162474        -0.319497
 H         2.466395         0.623299         1.902786
