19
Iteration:  3288charge 0 multiplicity 1
 C         0.053318         0.899647        -0.169923
 C         1.464890         0.397442        -0.101502
 C         2.399067        -0.114450        -1.173011
 C         3.351384        -0.404847         0.146770
 C         2.646558        -1.617054         0.543823
 O         1.320802        -1.085757         0.516612
 O         4.754967         0.087090         0.053650
 C         4.102884         1.433521         0.452016
 C         2.719364         0.772963         0.852108
 H        -0.339166         0.792076         0.859864
 H         0.064830         2.023198        -0.354161
 H        -0.558914         0.280964        -0.920543
 H         2.126061        -0.984775        -1.757954
 H         2.974225         0.638770        -1.669785
 H         2.720844        -2.517266        -0.148900
 H         2.939112        -1.863832         1.627293
 H         4.598548         1.921161         1.226650
 H         4.191620         2.074531        -0.429309
 H         2.511044         0.718481         1.933034
