19
Iteration:  3721charge 0 multiplicity 1
 C         0.102425         0.825581        -0.223099
 C         1.493828         0.360579         0.009984
 C         2.440283        -0.030454        -1.267388
 C         3.391556        -0.396315         0.055296
 C         2.593530        -1.661882         0.538991
 O         1.221621        -1.056373         0.626778
 O         4.763662         0.087407         0.076676
 C         4.154335         1.429998         0.476031
 C         2.715512         0.812690         0.867570
 H        -0.319580         0.668701         0.746210
 H         0.104739         1.791330        -0.659415
 H        -0.449807         0.257103        -0.951905
 H         2.131909        -0.723844        -2.027013
 H         2.672173         0.880335        -1.799019
 H         2.525385        -2.470564        -0.276171
 H         2.733384        -2.139169         1.522369
 H         4.512035         1.909025         1.388510
 H         4.242003         1.971733        -0.502673
 H         2.677177         0.789251         1.918048
