19
Iteration:  2380
 C         0.001097         0.899623        -0.275888
 C         1.531745         0.368625        -0.031579
 C         2.378494        -0.094728        -1.173532
 C         3.361034        -0.399923         0.014102
 C         2.679636        -1.636727         0.527946
 O         1.334804        -1.077409         0.597000
 O         4.685808         0.093969         0.127094
 C         4.155817         1.430880         0.476821
 C         2.717045         0.798187         0.852592
 H        -0.644637         1.018561         0.662964
 H        -0.140413         1.869706        -0.935113
 H        -0.464374         0.085589        -0.823781
 H         2.272155        -0.952056        -1.876534
 H         2.671468         0.751127        -1.721754
 H         2.682857        -2.543722        -0.101977
 H         2.874502        -1.955624         1.590467
 H         4.653480         1.950333         1.432943
 H         4.451042         2.047812        -0.345054
 H         2.706155         0.585207         1.946625
