19
Iteration:   907
 C         0.023369         0.830038        -0.285119
 C         1.474271         0.275300         0.003306
 C         2.472383         0.021249        -1.110307
 C         3.361538        -0.368255         0.080628
 C         2.679235        -1.680316         0.557130
 O         1.348417        -1.111460         0.457118
 O         4.703924         0.061272         0.104037
 C         4.103715         1.541246         0.499345
 C         2.678980         0.824750         0.848318
 H        -0.661249         0.492346         0.579559
 H         0.053391         1.898766        -0.215312
 H        -0.467669         0.360184        -1.126988
 H         2.327627        -0.838068        -1.819238
 H         2.653095         0.888492        -1.721417
 H         2.782009        -2.505185        -0.228991
 H         2.804534        -2.030744         1.659055
 H         4.604091         1.770902         1.331338
 H         4.159554         2.184161        -0.337042
 H         2.677119         0.765224         1.877157
