19
Iteration:  4362charge 0 multiplicity 1
 C         0.206677         1.056912        -0.086196
 C         1.448222         0.183027        -0.100465
 C         2.487372        -0.122749        -1.248942
 C         3.332283        -0.381225         0.046467
 C         2.691385        -1.716761         0.585317
 O         1.289934        -1.121152         0.561802
 O         4.638415         0.122364         0.117778
 C         4.043829         1.500843         0.357803
 C         2.714277         0.728921         0.863777
 H        -0.053127         1.278511         0.962573
 H         0.545049         2.077821        -0.392540
 H        -0.645235         0.655329        -0.691344
 H         2.544633        -0.872860        -2.068013
 H         2.728398         0.808148        -1.676175
 H         2.638474        -2.593013        -0.066939
 H         2.779159        -1.820473         1.635843
 H         4.566159         2.160774         1.051543
 H         3.811847         2.049040        -0.468049
 H         2.429604         0.751104         1.923179
