19
Iteration:  2523charge 0 multiplicity 1
 C         0.088115         0.840280        -0.284607
 C         1.464317         0.350701        -0.071677
 C         2.384122        -0.063673        -1.152812
 C         3.362532        -0.373205         0.010093
 C         2.624231        -1.547304         0.642954
 O         1.274356        -1.066008         0.573983
 O         4.662478         0.123402         0.016874
 C         4.181298         1.376898         0.525113
 C         2.770933         0.767930         0.862722
 H        -0.381098         1.159273         0.656245
 H         0.168798         1.395917        -1.205348
 H        -0.348477        -0.090048        -0.604246
 H         2.173732        -0.834921        -1.828439
 H         2.732709         0.753627        -1.861888
 H         2.826607        -2.450395         0.091131
 H         2.838131        -1.860845         1.652354
 H         4.690023         1.463597         1.605674
 H         4.494954         2.187757        -0.181952
 H         2.592804         0.655318         1.936148
