19
Iteration:  1697charge 0 multiplicity 1
 C         0.168571         1.007596        -0.257086
 C         1.446186         0.265367        -0.031815
 C         2.557206        -0.050533        -1.259005
 C         3.398219        -0.411100         0.045833
 C         2.696117        -1.723565         0.574406
 O         1.280534        -1.099165         0.611351
 O         4.679972         0.193096         0.157670
 C         3.986396         1.421194         0.430996
 C         2.632700         0.664656         0.792135
 H        -0.150165         1.160895         0.760631
 H         0.314849         2.032505        -0.670156
 H        -0.664332         0.487315        -0.639462
 H         2.484513        -0.729240        -2.088717
 H         2.810938         1.026006        -1.689356
 H         2.837600        -2.643156        -0.019021
 H         2.871540        -2.068244         1.686544
 H         4.408150         1.836189         1.467150
 H         3.931686         2.236937        -0.395266
 H         2.450306         0.581304         1.835311
