19
Iteration:  4838charge 0 multiplicity 1
 C         0.160803         1.077179        -0.074140
 C         1.471685         0.307800        -0.075006
 C         2.514862        -0.093415        -1.229205
 C         3.401235        -0.432860         0.074811
 C         2.730545        -1.668863         0.572921
 O         1.335026        -1.122588         0.536615
 O         4.640080         0.099563         0.037982
 C         3.995257         1.364323         0.463119
 C         2.605010         0.796136         0.800420
 H        -0.244878         1.303031         0.959026
 H         0.136153         2.051926        -0.602251
 H        -0.599193         0.469325        -0.417299
 H         2.146443        -0.920941        -1.801118
 H         2.900810         0.875688        -1.598693
 H         2.767404        -2.405500        -0.279530
 H         2.888157        -2.150192         1.566062
 H         4.708157         1.693667         1.305401
 H         4.068204         1.823711        -0.522332
 H         2.363539         0.930898         1.894978
