19
Iteration:   256
 C         0.167390         0.992195        -0.119802
 C         1.473054         0.267500        -0.074273
 C         2.464087        -0.103557        -1.135661
 C         3.304049        -0.435371         0.142121
 C         2.767429        -1.733132         0.499228
 O         1.316017        -1.159242         0.402647
 O         4.701560         0.206641         0.125067
 C         3.949410         1.481168         0.401792
 C         2.683665         0.729558         0.922771
 H        -0.203007         1.295745         0.874145
 H         0.535568         1.925862        -0.556593
 H        -0.633906         0.570948        -0.701545
 H         2.184734        -0.901454        -1.932837
 H         2.819435         0.948621        -1.428230
 H         3.051592        -2.460258        -0.214911
 H         2.923845        -2.104119         1.478967
 H         4.488286         2.205051         1.175046
 H         3.768423         1.999832        -0.547506
 H         2.363518         0.884031         1.871525
