19
Iteration:  2765
 C         0.174307         1.007370        -0.140554
 C         1.473090         0.232679        -0.126125
 C         2.495447        -0.119004        -1.238182
 C         3.322764        -0.452206         0.079800
 C         2.687780        -1.656880         0.641516
 O         1.274655        -1.093437         0.586767
 O         4.629638         0.141010         0.090220
 C         4.073898         1.483571         0.389597
 C         2.673913         0.754280         0.753568
 H        -0.189697         0.884739         0.881208
 H         0.412964         2.036860        -0.074671
 H        -0.702499         0.686997        -0.777927
 H         2.574059        -1.021047        -1.911163
 H         3.003148         0.727556        -1.629884
 H         2.627439        -2.564674        -0.014318
 H         2.977409        -1.821201         1.722194
 H         4.621988         1.945068         1.354481
 H         4.135223         2.241723        -0.456301
 H         2.539010         0.632409         1.850439
