19
Iteration:  3329charge 0 multiplicity 1
 C         0.291501         1.109618        -0.146288
 C         1.506660         0.193165        -0.141038
 C         2.426289        -0.100257        -1.234883
 C         3.317925        -0.400546        -0.023573
 C         2.656067        -1.700707         0.673090
 O         1.293629        -1.162435         0.584354
 O         4.775406         0.165037         0.121239
 C         3.907362         1.468582         0.411853
 C         2.630204         0.696742         0.799802
 H        -0.041464         1.223787         0.848324
 H         0.640958         2.005734        -0.480912
 H        -0.614369         0.699388        -0.467337
 H         2.157158        -0.776759        -2.057467
 H         2.721387         0.931676        -1.631243
 H         2.751193        -2.566000         0.058603
 H         2.943061        -1.815091         1.670352
 H         4.364424         1.873734         1.307165
 H         3.775457         2.338861        -0.321158
 H         2.654667         0.346903         1.809810
