19
Iteration:  3803
 C         0.181184         1.035017        -0.100238
 C         1.443395         0.277469        -0.064289
 C         2.522073        -0.112993        -1.213505
 C         3.341334        -0.428275         0.155637
 C         2.704136        -1.696001         0.517072
 O         1.267650        -1.052854         0.565157
 O         4.724892         0.124075         0.089120
 C         3.987503         1.419494         0.412921
 C         2.633279         0.710117         0.765257
 H        -0.150209         1.363860         0.890636
 H         0.501452         2.004260        -0.542073
 H        -0.585367         0.464372        -0.612583
 H         2.274879        -0.929777        -1.971507
 H         3.149405         0.677853        -1.659024
 H         2.634137        -2.501310        -0.204634
 H         3.048407        -2.097896         1.496119
 H         4.576832         1.981029         1.204446
 H         3.847920         2.142481        -0.509653
 H         2.352898         0.804192         1.863477
