19
Iteration:  1161
 C         0.170567         0.962470        -0.169824
 C         1.465206         0.233124        -0.107140
 C         2.440829        -0.034843        -1.235034
 C         3.435376        -0.405548         0.070297
 C         2.712170        -1.662338         0.529162
 O         1.263366        -1.139683         0.535506
 O         4.679912         0.202995         0.212989
 C         4.038181         1.457872         0.460971
 C         2.640780         0.715280         0.814110
 H        -0.276708         1.259053         0.745639
 H         0.206159         1.765308        -0.882191
 H        -0.561087         0.234786        -0.457246
 H         2.188909        -0.851198        -1.895384
 H         2.972967         0.647910        -1.934975
 H         2.637762        -2.504440        -0.161239
 H         3.165937        -1.848112         1.536330
 H         4.552691         1.791728         1.368168
 H         4.060285         2.110487        -0.459622
 H         2.410508         0.699946         1.914678
