19
Iteration:   569charge 0 multiplicity 1
 C         0.179421         0.940268        -0.229470
 C         1.449523         0.234181        -0.091128
 C         2.465954        -0.045300        -1.238498
 C         3.360183        -0.406045        -0.019261
 C         2.748134        -1.701890         0.526688
 O         1.283021        -1.129379         0.592200
 O         4.704480         0.231860         0.167472
 C         3.991161         1.503355         0.501489
 C         2.633262         0.650868         0.897082
 H        -0.428674         0.869873         0.632678
 H         0.438202         1.993856        -0.394051
 H        -0.323034         0.671537        -1.134561
 H         2.313747        -0.864758        -1.955416
 H         2.822565         0.939331        -1.701776
 H         2.582429        -2.574783        -0.083527
 H         3.147274        -1.888643         1.524887
 H         4.534263         1.953900         1.307817
 H         4.099144         2.283173        -0.374149
 H         2.368876         0.379607         1.961206
