19
Iteration:   822
 C         0.170935         0.998815        -0.257332
 C         1.486129         0.239090         0.037376
 C         2.477073        -0.012027        -1.192384
 C         3.379670        -0.411754         0.085250
 C         2.682409        -1.681798         0.551275
 O         1.328940        -1.182112         0.446814
 O         4.717880         0.218041         0.097518
 C         3.901449         1.475534         0.488001
 C         2.687694         0.629362         0.885206
 H        -0.296133         1.539091         0.708120
 H         0.406798         1.737133        -1.011784
 H        -0.659217         0.356503        -0.583840
 H         2.146023        -0.917903        -1.769702
 H         2.908899         0.809243        -1.680158
 H         2.884424        -2.495621        -0.142254
 H         2.890646        -1.892606         1.558196
 H         4.407577         1.995472         1.393864
 H         3.806621         2.317789        -0.237488
 H         2.621395         0.634175         1.981457
