19
Iteration:  4015
 C         0.112058         0.982536        -0.283383
 C         1.482185         0.358104         0.003669
 C         2.489549        -0.021788        -1.195119
 C         3.279074        -0.406548        -0.036102
 C         2.720738        -1.675110         0.600216
 O         1.338042        -1.068011         0.638311
 O         4.609883         0.002397         0.049421
 C         4.088001         1.433512         0.457899
 C         2.701762         0.770369         0.881915
 H        -0.441683         0.984166         0.631168
 H        -0.152206         1.807043        -0.946300
 H        -0.335038         0.093268        -0.818765
 H         2.300152        -0.889909        -1.828272
 H         2.894430         0.963785        -1.460473
 H         2.662147        -2.470603        -0.145864
 H         3.093842        -1.865027         1.654985
 H         4.869701         1.700429         1.249729
 H         4.176286         2.192027        -0.360261
 H         2.570465         0.750780         1.969679
