19
Iteration:   765
 C         0.047092         0.859835        -0.231764
 C         1.446136         0.219948        -0.089939
 C         2.434597        -0.060997        -1.181296
 C         3.336184        -0.352180         0.055254
 C         2.736484        -1.673490         0.481400
 O         1.310681        -1.089760         0.481283
 O         4.679407         0.166718         0.219381
 C         4.172563         1.431421         0.545654
 C         2.681027         0.837951         0.805690
 H        -0.365042         0.615086         0.847933
 H        -0.034871         1.984031        -0.353200
 H        -0.648884         0.263547        -0.855800
 H         2.166574        -0.820105        -1.892358
 H         2.725589         0.831210        -1.809730
 H         2.908574        -2.537135        -0.140221
 H         3.157241        -1.860363         1.464149
 H         4.561799         1.713750         1.477096
 H         4.279993         2.131351        -0.262080
 H         2.447660         0.809554         1.790000
