19
Iteration:  4314charge 0 multiplicity 1
 C         0.052525         0.842273        -0.224636
 C         1.529509         0.333449        -0.048733
 C         2.383964        -0.020545        -1.171432
 C         3.354871        -0.373233         0.035351
 C         2.638564        -1.671857         0.604669
 O         1.318406        -1.041370         0.561313
 O         4.647410         0.109866         0.059622
 C         4.178546         1.405068         0.481955
 C         2.724034         0.769905         0.837205
 H        -0.247156         1.211775         0.756321
 H        -0.013131         1.770387        -0.757086
 H        -0.575941         0.071435        -0.574711
 H         1.974809        -0.890886        -1.739396
 H         2.961108         0.626275        -1.933423
 H         2.638484        -2.437886        -0.133204
 H         2.977110        -1.776545         1.649496
 H         4.955266         1.774491         1.174865
 H         4.201382         2.149198        -0.384703
 H         2.617495         0.498032         1.931493
