19
Iteration:  2211charge 0 multiplicity 1
 C         0.037961         0.865808        -0.206318
 C         1.478109         0.298795        -0.065829
 C         2.479409         0.015814        -1.215084
 C         3.402241        -0.408554         0.030459
 C         2.699994        -1.616302         0.630140
 O         1.269323        -1.059690         0.550432
 O         4.683725         0.054793         0.113078
 C         4.085783         1.391109         0.465611
 C         2.715513         0.797585         0.814639
 H        -0.471325         0.850046         0.781320
 H        -0.023401         1.842179        -0.595205
 H        -0.582153         0.108086        -0.759806
 H         2.378480        -0.661895        -2.062061
 H         2.990406         0.963997        -1.647924
 H         2.663359        -2.487443         0.005501
 H         3.030937        -1.789862         1.660506
 H         4.568679         1.909389         1.229288
 H         4.140413         2.135136        -0.418710
 H         2.555824         0.586242         1.844989
