19
Iteration:   747charge 0 multiplicity 1
 C         0.083441         0.795621        -0.135352
 C         1.495307         0.337996        -0.132837
 C         2.448342         0.032123        -1.293932
 C         3.353231        -0.360227         0.046998
 C         2.675448        -1.592661         0.595317
 O         1.354640        -1.157312         0.486383
 O         4.695544         0.064619         0.194592
 C         4.061786         1.511458         0.541155
 C         2.668829         0.769026         0.801292
 H        -0.660157         0.514706         0.586192
 H         0.232016         1.817822        -0.278052
 H        -0.333988         0.434878        -1.050774
 H         2.089260        -0.840428        -1.908156
 H         2.788981         0.879259        -1.812371
 H         2.713134        -2.460218        -0.098405
 H         2.871120        -1.898771         1.626829
 H         4.577383         1.941384         1.526438
 H         4.120161         2.134682        -0.433504
 H         2.653489         0.549725         1.971593
