19
Iteration:  1571
 C         0.191879         1.057212        -0.213084
 C         1.473753         0.260347        -0.048632
 C         2.519496        -0.078376        -1.196258
 C         3.365841        -0.445357         0.180978
 C         2.674321        -1.753782         0.610006
 O         1.287179        -1.209948         0.469702
 O         4.681035         0.185282         0.081171
 C         3.938021         1.511552         0.427591
 C         2.704569         0.749616         0.854310
 H        -0.496021         1.220854         0.670665
 H         0.461432         2.099174        -0.402479
 H        -0.390125         0.731943        -1.144858
 H         2.215243        -0.823915        -1.912420
 H         2.922370         0.856195        -1.581941
 H         2.747440        -2.696265        -0.019111
 H         3.079339        -1.910758         1.608363
 H         4.383290         2.009350         1.255249
 H         4.009447         2.140744        -0.553118
 H         2.449004         0.655273         1.983471
