19
Iteration:   645
 C         0.155993         0.842373        -0.191259
 C         1.497451         0.263148        -0.037341
 C         2.527994         0.074799        -1.200679
 C         3.357384        -0.415067         0.022192
 C         2.695115        -1.676497         0.553566
 O         1.281205        -1.140959         0.498538
 O         4.721123         0.163777         0.138169
 C         4.014825         1.459440         0.536335
 C         2.617739         0.729456         0.791375
 H        -0.041202         1.278112         0.819469
 H         0.059604         1.701449        -0.911856
 H        -0.594160         0.108917        -0.524086
 H         2.148141        -0.617799        -1.936470
 H         2.960435         0.928696        -1.830174
 H         2.680599        -2.646044         0.111856
 H         2.860109        -1.734210         1.628011
 H         4.446152         1.929382         1.423684
 H         4.001316         2.221393        -0.383776
 H         2.335361         0.639721         1.821542
