19
Iteration:  1747charge 0 multiplicity 1
 C         0.141814         0.990006        -0.218716
 C         1.469973         0.325048        -0.016133
 C         2.491766        -0.076112        -1.154373
 C         3.404353        -0.454512         0.069317
 C         2.671810        -1.686493         0.631724
 O         1.286122        -1.149115         0.457747
 O         4.696010         0.193499         0.113397
 C         4.026015         1.452177         0.471001
 C         2.685206         0.702314         0.813522
 H        -0.558709         0.853141         0.679330
 H         0.297037         2.074940        -0.402664
 H        -0.485772         0.663472        -1.153335
 H         2.159620        -0.785340        -1.979350
 H         2.988384         0.665577        -1.696367
 H         2.637489        -2.634465         0.030346
 H         3.126402        -1.760363         1.602448
 H         4.389703         2.077755         1.199581
 H         3.891513         2.053299        -0.392304
 H         2.440098         0.559831         1.915660
