19
Iteration:  2917
 C         0.200289         0.973016        -0.189122
 C         1.482258         0.251268         0.023170
 C         2.446629        -0.074016        -1.132841
 C         3.349242        -0.403790         0.085428
 C         2.687963        -1.654663         0.500384
 O         1.302680        -1.082325         0.607567
 O         4.666069         0.089766         0.092959
 C         3.998398         1.412786         0.383038
 C         2.694773         0.772405         0.769823
 H        -0.266595         0.972891         0.814963
 H         0.454081         1.952337        -0.581467
 H        -0.492774         0.500571        -0.996474
 H         2.159968        -0.964185        -1.708394
 H         2.823051         0.820572        -1.663692
 H         2.546618        -2.401842        -0.335971
 H         3.094602        -2.002862         1.519700
 H         4.554890         1.976519         1.192602
 H         4.109282         2.192219        -0.473664
 H         2.489053         1.015170         1.846429
