19
Iteration:  1180
 C         0.081196         0.896696        -0.264008
 C         1.456015         0.293598        -0.044607
 C         2.489100        -0.026592        -1.174733
 C         3.323685        -0.463693        -0.004950
 C         2.697972        -1.674370         0.592601
 O         1.349630        -1.042111         0.502021
 O         4.747560         0.138995         0.131821
 C         3.992424         1.464316         0.544676
 C         2.746164         0.713576         0.861806
 H        -0.556058         1.299162         0.672233
 H         0.049793         1.765138        -0.944736
 H        -0.729293         0.201953        -0.657403
 H         2.184044        -0.818311        -1.918524
 H         2.578857         1.003212        -1.800345
 H         2.823082        -2.502110        -0.030597
 H         2.908176        -1.754948         1.698962
 H         4.488806         1.893812         1.350170
 H         3.880762         2.048699        -0.394697
 H         2.675041         0.380536         1.852538
