19
Iteration:  2642
 C         0.136211         0.871516        -0.199727
 C         1.476583         0.255725        -0.058468
 C         2.345886        -0.110394        -1.227336
 C         3.366453        -0.403637        -0.067874
 C         2.691282        -1.593781         0.651417
 O         1.309701        -0.991828         0.604892
 O         4.708589         0.107171         0.122411
 C         4.106151         1.436272         0.502776
 C         2.691442         0.748484         0.750006
 H        -0.492008         0.823279         0.719934
 H         0.195612         1.916752        -0.569042
 H        -0.452024         0.423764        -0.982059
 H         2.108616        -0.766754        -2.030659
 H         2.861845         0.816478        -1.620012
 H         2.590527        -2.505940        -0.005115
 H         2.865428        -1.878303         1.757426
 H         4.602497         1.724178         1.511923
 H         4.231522         2.094850        -0.359451
 H         2.716474         0.568060         1.827585
