19
Iteration:  2151charge 0 multiplicity 1
 C         0.131539         1.073833        -0.230257
 C         1.509435         0.237044        -0.063554
 C         2.390541        -0.127771        -1.227361
 C         3.450349        -0.400533         0.106680
 C         2.662064        -1.690986         0.547795
 O         1.318712        -1.138834         0.492324
 O         4.684831         0.212769         0.122379
 C         3.999002         1.508624         0.410999
 C         2.694057         0.654935         0.978103
 H        -0.119868         1.380299         0.751932
 H         0.242133         2.016050        -0.851888
 H        -0.662370         0.586942        -0.779921
 H         2.218841        -1.088772        -1.697965
 H         2.935717         0.542433        -1.855313
 H         2.678920        -2.619855        -0.081775
 H         2.937616        -2.026757         1.582025
 H         4.624098         1.977920         1.310518
 H         3.740417         2.082665        -0.483155
 H         2.593260         0.415461         2.098472
