19
Iteration:  3867charge 0 multiplicity 1
 C         0.063755         0.859344        -0.223872
 C         1.488110         0.292627        -0.071514
 C         2.458198         0.002617        -1.205275
 C         3.280693        -0.429246        -0.052719
 C         2.695091        -1.625969         0.566626
 O         1.289741        -1.042788         0.632512
 O         4.649348         0.048122         0.062100
 C         4.206000         1.370315         0.536807
 C         2.718666         0.852787         0.858865
 H        -0.474025         1.120477         0.668175
 H         0.245576         1.863238        -0.637377
 H        -0.611329         0.232217        -0.813164
 H         2.246282        -0.755266        -2.047944
 H         2.997261         0.843944        -1.711074
 H         2.633698        -2.678124         0.063640
 H         3.123214        -1.822001         1.582093
 H         4.702347         1.860056         1.376496
 H         4.098160         2.111069        -0.348009
 H         2.374544         0.777409         1.944011
