19
Iteration:   988
 C         0.203684         0.969288        -0.114572
 C         1.440020         0.293111        -0.106412
 C         2.490796        -0.134066        -1.178282
 C         3.395423        -0.449100         0.093205
 C         2.703994        -1.701542         0.519713
 O         1.332268        -1.200005         0.421687
 O         4.613879         0.163504         0.143728
 C         3.972046         1.544701         0.480234
 C         2.656821         0.805544         0.852938
 H         0.131192         1.399718         0.925456
 H         0.305588         1.863610        -0.845768
 H        -0.716254         0.417629        -0.490286
 H         2.380368        -0.875487        -1.939591
 H         2.936323         0.819056        -1.610780
 H         2.927892        -2.648656        -0.009287
 H         2.958248        -1.822427         1.555826
 H         4.521912         2.157037         1.280362
 H         4.059714         2.084106        -0.347314
 H         2.287435         0.757419         1.965722
