19
Iteration:  1290
 C         0.117984         1.043089        -0.185091
 C         1.458144         0.292073        -0.039882
 C         2.543315        -0.105031        -1.180529
 C         3.373472        -0.414955         0.119155
 C         2.634364        -1.673123         0.590096
 O         1.344914        -1.175259         0.439810
 O         4.677978         0.155876         0.101736
 C         3.985828         1.474895         0.445653
 C         2.670749         0.698315         0.835827
 H        -0.178726         1.037630         0.947306
 H         0.297391         2.111139        -0.453104
 H        -0.634549         0.518989        -0.880621
 H         2.518800        -1.029987        -1.831426
 H         2.887739         0.918327        -1.646771
 H         2.968782        -2.491226        -0.048296
 H         2.864054        -1.951874         1.674477
 H         4.326491         2.075613         1.259265
 H         3.989645         2.093150        -0.481412
 H         2.475119         0.749546         1.866143
