19
Iteration:  4571charge 0 multiplicity 1
 C         0.084106         0.891970        -0.196114
 C         1.477131         0.289653        -0.023663
 C         2.484155         0.051998        -1.257981
 C         3.382553        -0.400027         0.061623
 C         2.592006        -1.639228         0.616493
 O         1.340195        -1.035597         0.611276
 O         4.727122         0.048959         0.018329
 C         4.085839         1.413631         0.435250
 C         2.651613         0.705157         0.871043
 H        -0.457531         0.747184         0.742260
 H         0.066321         1.988262        -0.220159
 H        -0.290669         0.315692        -1.102965
 H         2.396367        -0.735487        -1.980936
 H         2.592631         1.067921        -1.809181
 H         2.726773        -2.552755        -0.068794
 H         2.745936        -1.978986         1.674349
 H         4.621619         1.996127         1.230658
 H         4.118796         2.165042        -0.464468
 H         2.604532         0.523648         1.943352
