19
Iteration:   863
 C         0.165349         0.892642        -0.118294
 C         1.488484         0.242844        -0.116563
 C         2.507829        -0.012801        -1.264122
 C         3.400202        -0.392621         0.059221
 C         2.659137        -1.657680         0.544997
 O         1.364471        -1.116783         0.507320
 O         4.656413         0.147905         0.201475
 C         3.932248         1.480812         0.468921
 C         2.668439         0.754551         0.809705
 H        -0.390869         0.880445         0.859877
 H         0.417646         1.906727        -0.460659
 H        -0.503753         0.350550        -0.786744
 H         2.127113        -0.757048        -1.971364
 H         2.906537         0.822530        -1.873716
 H         2.694685        -2.551809        -0.134021
 H         2.984093        -1.864997         1.620332
 H         4.176444         1.752535         1.393540
 H         4.156898         2.128060        -0.324043
 H         2.527016         0.652207         1.827016
