19
Iteration:  1452
 C         0.156732         0.950075        -0.231217
 C         1.512061         0.329229        -0.070814
 C         2.444311        -0.107355        -1.212093
 C         3.398191        -0.411199         0.085153
 C         2.692064        -1.719312         0.562801
 O         1.346982        -1.079773         0.501121
 O         4.675508         0.137672         0.131150
 C         3.942038         1.478449         0.516147
 C         2.687895         0.713204         0.867054
 H        -0.458903         1.204744         0.612304
 H         0.330060         1.942707        -0.545019
 H        -0.393291         0.582701        -1.085750
 H         1.985902        -0.965987        -1.688970
 H         2.773099         0.790883        -1.858969
 H         2.602971        -2.634893        -0.093422
 H         3.040170        -1.848427         1.621228
 H         4.497264         2.009612         1.277912
 H         3.814876         2.214715        -0.372538
 H         2.739899         0.487696         1.911325
