19
Iteration:  4975charge 0 multiplicity 1
 C         0.234343         1.037658        -0.050929
 C         1.497960         0.302693        -0.079180
 C         2.413961        -0.075702        -1.220645
 C         3.348381        -0.439582         0.111137
 C         2.663711        -1.713056         0.586597
 O         1.357745        -1.111034         0.485785
 O         4.653303         0.082396         0.086347
 C         3.983705         1.436244         0.426964
 C         2.672149         0.775496         0.767422
 H        -0.040403         1.429735         0.955135
 H         0.393623         1.961245        -0.659333
 H        -0.539410         0.279274        -0.521497
 H         2.137593        -0.914018        -1.947530
 H         2.679482         0.907324        -1.537219
 H         2.844377        -2.551522        -0.128369
 H         2.978091        -1.954122         1.618776
 H         4.594818         1.706124         1.273719
 H         3.866488         2.206209        -0.402571
 H         2.426390         1.006815         1.791651
