19
Iteration:  2970charge 0 multiplicity 1
 C         0.095366         0.861417        -0.209187
 C         1.482335         0.263912        -0.022018
 C         2.457467         0.023416        -1.194037
 C         3.369330        -0.345075         0.054233
 C         2.672045        -1.582210         0.662188
 O         1.274772        -1.047837         0.592665
 O         4.718872         0.052447        -0.029009
 C         4.124568         1.344073         0.476180
 C         2.615984         0.795237         0.808302
 H        -0.311481         0.682303         0.825243
 H         0.118535         1.891135        -0.556401
 H        -0.400048         0.307514        -1.104916
 H         2.245154        -0.650917        -2.056053
 H         2.905525         0.903542        -1.678602
 H         2.644242        -2.513354         0.107138
 H         2.795683        -1.813644         1.761736
 H         4.736237         1.484913         1.386329
 H         4.316240         2.156966        -0.442527
 H         2.532846         0.659715         1.926669
