19
Iteration:  3455charge 0 multiplicity 1
 C         0.175939         0.973639        -0.146793
 C         1.495773         0.301370        -0.056181
 C         2.497618        -0.055085        -1.220150
 C         3.343229        -0.437173         0.073870
 C         2.598294        -1.710370         0.596411
 O         1.259005        -1.138828         0.543375
 O         4.727706         0.144476         0.005000
 C         4.079813         1.509166         0.382378
 C         2.631876         0.733092         0.913353
 H        -0.338719         0.999408         0.795649
 H         0.234636         2.072757        -0.365082
 H        -0.274240         0.522080        -1.022843
 H         2.266895        -0.944174        -1.732767
 H         3.151631         0.656457        -1.687474
 H         2.847721        -2.653584         0.027344
 H         2.760357        -1.968139         1.709653
 H         4.614363         1.929574         1.271189
 H         3.884571         2.321939        -0.230716
 H         2.480854         0.705087         2.036771
