19
Iteration:  2981charge 0 multiplicity 1
 C         0.148071         0.875155        -0.213181
 C         1.458025         0.252644        -0.105204
 C         2.488171         0.049305        -1.196977
 C         3.293414        -0.374388         0.081991
 C         2.635138        -1.582282         0.670714
 O         1.345285        -1.119088         0.545962
 O         4.628901         0.033366        -0.006547
 C         4.180848         1.355407         0.451854
 C         2.673897         0.831136         0.866681
 H        -0.420442         0.954630         0.771200
 H         0.292987         1.935278        -0.372056
 H        -0.718407         0.342053        -0.750970
 H         2.230516        -0.872310        -1.753223
 H         2.789492         0.948668        -1.755059
 H         2.749902        -2.495462         0.087999
 H         3.094611        -1.751709         1.696175
 H         4.716006         1.782674         1.342417
 H         4.124839         2.244183        -0.407065
 H         2.311730         0.903449         1.929718
