19
Iteration:  4295charge 0 multiplicity 1
 C         0.057936         0.859345        -0.201733
 C         1.456238         0.227375        -0.036321
 C         2.482089        -0.015194        -1.175407
 C         3.328050        -0.380685         0.059563
 C         2.639672        -1.584042         0.585273
 O         1.278117        -1.021021         0.624057
 O         4.744492         0.040955        -0.041046
 C         4.116814         1.391212         0.489170
 C         2.720151         0.789596         0.837982
 H        -0.587834         1.188742         0.669666
 H         0.057185         1.784165        -0.870744
 H        -0.427920         0.048546        -0.772316
 H         2.335780        -0.777060        -1.986881
 H         2.645711         1.049063        -1.524996
 H         2.709834        -2.414978        -0.190814
 H         3.106714        -1.758154         1.622080
 H         4.576205         1.721087         1.438129
 H         4.332635         2.071560        -0.299251
 H         2.567240         0.823792         1.980698
