19
Iteration:  2003
 C         0.265395         1.038790        -0.143191
 C         1.499531         0.230307        -0.087615
 C         2.438837        -0.094661        -1.220624
 C         3.403576        -0.420965         0.075227
 C         2.695606        -1.761207         0.546719
 O         1.271730        -1.112055         0.506269
 O         4.628889         0.195220         0.166887
 C         3.928859         1.481360         0.463194
 C         2.696341         0.757177         0.821574
 H        -0.120504         1.466950         0.839597
 H         0.532720         1.813673        -0.921255
 H        -0.426116         0.312680        -0.585758
 H         2.338771        -1.016519        -1.873352
 H         2.723847         0.689705        -1.833149
 H         2.702292        -2.620601        -0.172502
 H         2.877081        -2.014701         1.596004
 H         4.486274         1.882990         1.240539
 H         3.897524         2.217866        -0.270142
 H         2.724381         0.677942         1.844920
