19
Iteration:  1515charge 0 multiplicity 1
 C         0.022040         0.860024        -0.220962
 C         1.491635         0.386473        -0.131968
 C         2.436674        -0.033891        -1.172965
 C         3.353940        -0.393326         0.100909
 C         2.683594        -1.646848         0.522268
 O         1.348568        -1.097063         0.543317
 O         4.691677         0.134589         0.204362
 C         4.103784         1.384091         0.515572
 C         2.675418         0.775213         0.739502
 H        -0.112232         1.107195         0.865110
 H         0.119395         1.802208        -0.860525
 H        -0.674314         0.084290        -0.642034
 H         2.085973        -0.815113        -1.764174
 H         2.871377         0.705584        -1.939010
 H         2.756728        -2.547985        -0.174204
 H         3.135065        -1.822399         1.514403
 H         4.633498         1.816626         1.385269
 H         4.275159         2.167706        -0.321328
 H         2.348501         0.433559         1.844987
