19
Iteration:  2702charge 0 multiplicity 1
 C         0.155728         0.919531        -0.214345
 C         1.482951         0.288889        -0.002540
 C         2.452309         0.027908        -1.155400
 C         3.375694        -0.373359         0.049036
 C         2.612173        -1.660805         0.604678
 O         1.281106        -1.134944         0.573320
 O         4.728238         0.096218         0.050386
 C         4.011570         1.367666         0.356017
 C         2.677068         0.804538         0.882501
 H        -0.093792         1.453880         0.695857
 H         0.390467         1.658970        -1.043125
 H        -0.572012         0.109724        -0.501237
 H         2.370662        -0.813314        -1.885393
 H         3.037845         0.831915        -1.597158
 H         2.710083        -2.564299        -0.009419
 H         2.915933        -2.040029         1.549699
 H         4.560986         1.941341         1.170063
 H         4.112658         2.129928        -0.487397
 H         2.491953         0.925911         1.987431
