19
Iteration:  3036charge 0 multiplicity 1
 C         0.307576         1.049197        -0.125300
 C         1.510580         0.207021        -0.010919
 C         2.531218        -0.140093        -1.249913
 C         3.360765        -0.453054         0.017341
 C         2.617468        -1.718224         0.539040
 O         1.256196        -1.044485         0.603657
 O         4.640398         0.191945         0.190975
 C         3.967270         1.484026         0.339955
 C         2.673899         0.684029         0.809447
 H         0.143918         1.166312         0.973019
 H         0.280052         1.902947        -0.766230
 H        -0.593069         0.463807        -0.567808
 H         2.242140        -0.872853        -1.975886
 H         2.984080         0.795652        -1.685926
 H         2.538274        -2.402031        -0.247815
 H         2.972299        -2.074508         1.531090
 H         4.432678         2.241784         1.002859
 H         3.711249         2.153936        -0.607003
 H         2.604394         0.419231         1.896580
