19
Iteration:  3456charge 0 multiplicity 1
 C         0.181818         0.979283        -0.148448
 C         1.497503         0.295363        -0.052081
 C         2.496515        -0.052054        -1.221887
 C         3.347182        -0.438026         0.077413
 C         2.591975        -1.711203         0.600339
 O         1.259496        -1.140763         0.545037
 O         4.730914         0.154264         0.004174
 C         4.080700         1.508077         0.374041
 C         2.621220         0.728181         0.918546
 H        -0.338414         1.002720         0.825266
 H         0.245316         2.075683        -0.390961
 H        -0.286332         0.541922        -1.029201
 H         2.287065        -0.935002        -1.746402
 H         3.172631         0.658226        -1.687929
 H         2.837373        -2.656644         0.014413
 H         2.746757        -1.985370         1.711244
 H         4.606025         1.936089         1.251527
 H         3.880152         2.284261        -0.234335
 H         2.485852         0.654668         2.014828
