19
Iteration:  2603
 C         0.151622         1.079038        -0.076984
 C         1.465394         0.319719        -0.084533
 C         2.528173        -0.125287        -1.110916
 C         3.351027        -0.496387         0.152658
 C         2.652489        -1.672182         0.649597
 O         1.289843        -1.163866         0.423858
 O         4.749422         0.140588         0.126984
 C         3.929664         1.459683         0.268519
 C         2.710482         0.769935         0.794352
 H        -0.364213         0.900824         0.876165
 H         0.430019         2.111040        -0.090156
 H        -0.330788         0.590577        -0.976939
 H         2.068017        -0.922753        -1.762972
 H         3.074942         0.595356        -1.622477
 H         2.891113        -2.442709        -0.064527
 H         2.790072        -1.933598         1.669415
 H         4.358370         2.130161         0.984660
 H         3.842032         2.014667        -0.682755
 H         2.435785         0.820099         1.838688
