19
Iteration:  1314
 C         0.196459         0.914898        -0.242474
 C         1.457263         0.313959        -0.018172
 C         2.400705        -0.055308        -1.235559
 C         3.384036        -0.414750         0.055305
 C         2.709929        -1.692605         0.561001
 O         1.274076        -1.072061         0.508479
 O         4.689542         0.212956         0.148345
 C         4.036297         1.404660         0.523010
 C         2.709991         0.705634         0.798950
 H        -0.129282         1.239581         0.808590
 H         0.260115         1.847922        -0.897510
 H        -0.480451         0.124656        -0.722744
 H         2.079009        -0.997386        -1.820965
 H         2.938537         0.764891        -1.765865
 H         2.658200        -2.621863        -0.049384
 H         2.916299        -1.955890         1.637916
 H         4.441903         2.002480         1.429087
 H         3.902339         2.176469        -0.268532
 H         2.548372         0.559932         1.931153
