19
Iteration:  1735charge 0 multiplicity 1
 C         0.201759         1.046877        -0.180833
 C         1.534918         0.290344        -0.114118
 C         2.428357        -0.108290        -1.206615
 C         3.348551        -0.458209         0.076577
 C         2.725206        -1.713600         0.593552
 O         1.285525        -1.133128         0.472295
 O         4.673252         0.238947         0.149532
 C         3.963305         1.468038         0.458646
 C         2.704103         0.701427         0.855389
 H        -0.531729         0.913946         0.711514
 H         0.342159         2.096462        -0.420686
 H        -0.210148         0.460542        -1.119725
 H         2.030544        -1.094290        -1.611575
 H         2.746275         0.639762        -1.826517
 H         2.889861        -2.663999        -0.004366
 H         2.733834        -1.937814         1.654988
 H         4.500660         1.773215         1.275310
 H         4.008282         2.160738        -0.317704
 H         2.564880         0.752036         2.012971
