19
Iteration:  2275
 C         0.231100         1.009454        -0.211975
 C         1.494797         0.206178        -0.077026
 C         2.492346        -0.020975        -1.246744
 C         3.370108        -0.468388         0.066562
 C         2.687848        -1.725063         0.635059
 O         1.339265        -1.071077         0.622035
 O         4.698593         0.147482         0.102215
 C         3.930573         1.430777         0.455526
 C         2.599090         0.745116         0.739613
 H        -0.280872         0.933061         0.762468
 H         0.494664         2.029661        -0.271273
 H        -0.415383         0.746099        -0.998498
 H         2.226903        -0.745712        -2.014282
 H         2.751564         1.044865        -1.521313
 H         2.481532        -2.667735         0.064761
 H         2.998405        -1.995834         1.611425
 H         4.557433         1.855520         1.204152
 H         3.797868         2.225435        -0.488490
 H         2.402845         0.731830         1.828252
