19
Iteration:   991charge 0 multiplicity 1
 C         0.167650         0.968088        -0.118943
 C         1.461790         0.303062        -0.103036
 C         2.493659        -0.129616        -1.169101
 C         3.381932        -0.466046         0.095820
 C         2.750314        -1.690993         0.525475
 O         1.321568        -1.190996         0.412106
 O         4.615399         0.165022         0.148094
 C         3.969689         1.508639         0.475221
 C         2.651326         0.810660         0.858516
 H         0.173985         1.347202         0.839075
 H         0.302844         1.843014        -0.805545
 H        -0.728493         0.469069        -0.448321
 H         2.348646        -0.817400        -1.997673
 H         2.941479         0.812034        -1.505800
 H         2.959138        -2.560332         0.021024
 H         2.907502        -1.865009         1.542263
 H         4.528868         2.113864         1.250981
 H         4.045777         2.122608        -0.463742
 H         2.296634         0.807530         1.930730
