19
Iteration:  4124
 C         0.096835         0.941492        -0.249466
 C         1.475116         0.293948        -0.040924
 C         2.426503        -0.022341        -1.133752
 C         3.355457        -0.384073        -0.005914
 C         2.634112        -1.613916         0.558954
 O         1.267694        -1.069505         0.615998
 O         4.729549         0.064173         0.079923
 C         4.075044         1.424776         0.449262
 C         2.791957         0.721851         0.870574
 H        -0.497628         1.086808         0.616474
 H         0.105305         1.873326        -0.808808
 H        -0.454071         0.163756        -0.796774
 H         2.183774        -0.741073        -1.937383
 H         2.648861         0.813673        -1.788726
 H         2.819857        -2.596720        -0.063057
 H         2.923614        -1.881685         1.691990
 H         4.812060         1.839010         1.223923
 H         3.947631         2.065052        -0.493352
 H         2.584441         0.632359         1.937322
