19
Iteration:  2485
 C         0.098360         0.946746        -0.217316
 C         1.494852         0.291068        -0.102001
 C         2.532642         0.001932        -1.212841
 C         3.318925        -0.415930         0.088052
 C         2.652198        -1.628531         0.620195
 O         1.329586        -1.071062         0.612266
 O         4.661199         0.090716         0.150201
 C         4.081669         1.394194         0.353651
 C         2.693788         0.711829         0.812624
 H        -0.369925         1.068660         0.783500
 H        -0.138513         1.916243        -0.699079
 H        -0.585334         0.195858        -0.718214
 H         2.294562        -0.838828        -1.982450
 H         2.867975         0.948100        -1.563776
 H         2.745489        -2.421948        -0.200549
 H         2.996360        -1.892110         1.667520
 H         4.601070         1.869374         1.143806
 H         4.015246         2.119314        -0.535915
 H         2.541945         0.613271         1.897962
