19
Iteration:   873charge 0 multiplicity 1
 C         0.138035         0.843262        -0.146954
 C         1.549220         0.284982        -0.101523
 C         2.478588        -0.002174        -1.216615
 C         3.413349        -0.425521        -0.038015
 C         2.668435        -1.669068         0.560500
 O         1.315789        -1.054611         0.503124
 O         4.726239         0.136709         0.215294
 C         3.942258         1.467990         0.493969
 C         2.608046         0.743140         0.795443
 H        -0.198349         0.650740         0.865537
 H         0.031033         1.939431        -0.328286
 H        -0.486286         0.408663        -0.919611
 H         2.323069        -0.834017        -1.882870
 H         2.754079         0.998592        -1.643824
 H         2.666262        -2.663356         0.017117
 H         2.978222        -1.920956         1.659993
 H         4.429077         2.037672         1.221831
 H         4.073161         2.148482        -0.364877
 H         2.473007         0.520917         1.814097
