19
Iteration:  1594
 C         0.229104         1.045032        -0.255724
 C         1.490290         0.286154        -0.075442
 C         2.450909        -0.138999        -1.174838
 C         3.372027        -0.393764         0.061937
 C         2.710331        -1.670633         0.599687
 O         1.340831        -1.110179         0.482146
 O         4.649420         0.171669         0.132148
 C         3.934152         1.445075         0.474936
 C         2.667862         0.701246         0.906212
 H        -0.330752         0.838199         0.681120
 H         0.295077         2.088028        -0.393994
 H        -0.243934         0.530165        -1.142646
 H         2.010525        -0.978359        -1.754933
 H         2.644528         0.697181        -1.751414
 H         2.669673        -2.526989        -0.140878
 H         3.088530        -1.951478         1.589501
 H         4.448417         1.965244         1.247475
 H         4.045811         2.025215        -0.519924
 H         2.561108         0.550741         2.013963
