19
Iteration:  1017charge 0 multiplicity 1
 C         0.105519         0.917662        -0.149671
 C         1.455510         0.318096        -0.053144
 C         2.495553         0.037703        -1.239780
 C         3.407765        -0.415882         0.085814
 C         2.643006        -1.630902         0.554330
 O         1.358966        -1.153659         0.465825
 O         4.718233         0.116563         0.171711
 C         3.968259         1.498292         0.459857
 C         2.655445         0.681242         0.837744
 H        -0.347037         1.175179         0.846531
 H         0.206039         1.749938        -0.797499
 H        -0.493617         0.169157        -0.640140
 H         2.392392        -0.912773        -1.851323
 H         2.799552         0.870263        -1.873286
 H         2.730015        -2.683198         0.077800
 H         2.930336        -1.797138         1.701374
 H         4.428329         2.044394         1.249393
 H         4.096220         2.069625        -0.629625
 H         2.539616         0.543261         1.872061
