19
Iteration:  4085charge 0 multiplicity 1
 C         0.207370         1.074236        -0.063476
 C         1.521195         0.266950        -0.116883
 C         2.516361        -0.185317        -1.226352
 C         3.394378        -0.433327         0.101003
 C         2.683585        -1.615278         0.648886
 O         1.315294        -1.081102         0.469244
 O         4.646322         0.058834         0.086446
 C         3.946385         1.437046         0.410564
 C         2.633869         0.763319         0.792712
 H        -0.106187         1.056223         1.030606
 H         0.420406         2.160973        -0.222576
 H        -0.595559         0.701754        -0.741806
 H         2.268419        -1.065571        -1.876804
 H         2.747490         0.801045        -1.587684
 H         2.670861        -2.375219        -0.038000
 H         2.959562        -1.767527         1.634680
 H         4.427476         2.041597         1.104955
 H         3.890971         1.969761        -0.510564
 H         2.382528         0.645025         1.850286
