19
Iteration:   470
 C         0.087750         0.776220        -0.222274
 C         1.509998         0.329321        -0.039023
 C         2.461247        -0.052880        -1.239205
 C         3.288840        -0.300946         0.076220
 C         2.636168        -1.602425         0.463160
 O         1.379899        -1.132105         0.512332
 O         4.665885         0.119346         0.187534
 C         4.129090         1.448284         0.550163
 C         2.667408         0.808483         0.828972
 H        -0.342436         1.129137         0.634640
 H         0.066607         1.643212        -0.918964
 H        -0.577188        -0.013496        -0.538001
 H         1.960599        -0.940298        -1.737217
 H         2.730396         0.884916        -1.728840
 H         2.810996        -2.385711        -0.298405
 H         3.065287        -2.056303         1.382982
 H         4.648943         1.760893         1.380756
 H         4.275044         2.183825        -0.253498
 H         2.553097         0.638090         1.961611
