19
Iteration:  4601
 C         0.022329         0.886074        -0.173294
 C         1.499138         0.371975         0.029724
 C         2.415500        -0.022304        -1.211827
 C         3.381058        -0.420942         0.030097
 C         2.640020        -1.696921         0.535604
 O         1.322221        -1.074680         0.521581
 O         4.735751         0.074583         0.095030
 C         4.222178         1.420409         0.410048
 C         2.611079         0.840147         0.869474
 H        -0.563054         0.791314         0.760970
 H        -0.101203         1.990441        -0.381904
 H        -0.310129         0.181418        -0.937409
 H         2.020455        -0.926476        -1.724126
 H         2.755606         0.823299        -1.890248
 H         2.728847        -2.707806        -0.021357
 H         2.838823        -1.960255         1.639707
 H         4.533320         1.713361         1.428012
 H         4.383186         2.119336        -0.500955
 H         2.583320         0.947718         1.978186
