19
Iteration:   876charge 0 multiplicity 1
 C         0.129675         0.840574        -0.170362
 C         1.545178         0.294986        -0.087454
 C         2.483163         0.003161        -1.206452
 C         3.382486        -0.438402        -0.048304
 C         2.681654        -1.663005         0.566966
 O         1.302475        -1.042905         0.500711
 O         4.749760         0.147944         0.218081
 C         3.981610         1.470072         0.505129
 C         2.598870         0.721092         0.789337
 H        -0.202952         0.575814         0.948698
 H        -0.069188         1.905062        -0.254876
 H        -0.477909         0.381180        -0.957187
 H         2.349515        -0.828976        -1.951617
 H         2.725162         0.938484        -1.620846
 H         2.685859        -2.638582         0.043313
 H         2.943415        -1.907222         1.591171
 H         4.540935         2.050208         1.174789
 H         3.877989         2.046226        -0.384889
 H         2.452375         0.568262         1.820121
