19
Iteration:  3179charge 0 multiplicity 1
 C         0.197706         1.088808        -0.095812
 C         1.517959         0.310526        -0.034050
 C         2.539891        -0.082750        -1.179580
 C         3.391245        -0.546175        -0.010077
 C         2.635921        -1.633677         0.654910
 O         1.322508        -1.182796         0.510049
 O         4.662268         0.174099         0.076622
 C         3.908883         1.469329         0.428105
 C         2.669552         0.666604         0.774373
 H        -0.046964         1.379983         0.918897
 H         0.342089         2.030949        -0.740761
 H        -0.688386         0.720953        -0.726946
 H         2.211041        -0.750910        -1.913150
 H         2.946527         0.775408        -1.745380
 H         2.669576        -2.705528         0.281165
 H         3.067068        -1.666302         1.716694
 H         4.573150         1.891689         1.100539
 H         3.658102         2.085073        -0.478699
 H         2.466450         0.607965         1.841281
