19
Iteration:  4117charge 0 multiplicity 1
 C         0.099686         0.965696        -0.216473
 C         1.524573         0.348367        -0.000193
 C         2.413938        -0.068950        -1.187029
 C         3.376542        -0.395035         0.004231
 C         2.586150        -1.616126         0.624629
 O         1.271769        -1.149142         0.571392
 O         4.724817         0.128375         0.093429
 C         4.149956         1.422092         0.432380
 C         2.718311         0.728815         0.840178
 H        -0.529720         1.107474         0.713754
 H         0.165768         1.891612        -0.816168
 H        -0.526706         0.324179        -0.892911
 H         2.115423        -0.874910        -1.944355
 H         2.632730         0.897256        -1.711137
 H         2.615966        -2.545043         0.005411
 H         3.081069        -1.957965         1.544929
 H         4.639504         1.951548         1.207721
 H         4.095730         1.951886        -0.505425
 H         2.626105         0.477920         1.889682
