19
Iteration:  1485charge 0 multiplicity 1
 C         0.099666         0.825569        -0.269604
 C         1.501131         0.281916        -0.046217
 C         2.530244         0.046309        -1.129049
 C         3.350458        -0.391601         0.079763
 C         2.603119        -1.626495         0.553557
 O         1.300119        -1.098328         0.528887
 O         4.684887         0.087529         0.100421
 C         4.041078         1.469217         0.500346
 C         2.694891         0.782890         0.803936
 H        -0.311174         1.070509         0.718821
 H         0.370588         1.657157        -0.830133
 H        -0.657289         0.135403        -0.654691
 H         2.385441        -0.685597        -1.971094
 H         2.797471         1.049002        -1.596461
 H         2.623954        -2.670386         0.098776
 H         3.054826        -1.863277         1.587041
 H         4.645928         1.690597         1.343071
 H         4.086850         2.175863        -0.437545
 H         2.681854         0.471385         1.856940
