19
Iteration:  2234charge 0 multiplicity 1
 C         0.130721         0.794333        -0.224513
 C         1.521470         0.364591        -0.024423
 C         2.312942        -0.018723        -1.127046
 C         3.377195        -0.387861         0.023555
 C         2.614401        -1.695453         0.582260
 O         1.287091        -1.045205         0.490225
 O         4.708910         0.103320         0.123545
 C         4.169046         1.453027         0.473869
 C         2.735315         0.807504         0.859131
 H        -0.638770         0.632937         0.533120
 H         0.181361         1.825378        -0.519586
 H        -0.234603         0.151841        -1.120086
 H         1.976303        -0.929781        -1.584379
 H         2.681644         0.681049        -1.995609
 H         2.720865        -2.506140        -0.121060
 H         2.817532        -1.942999         1.649847
 H         4.573978         2.073637         1.215855
 H         4.349828         2.047237        -0.457223
 H         2.593131         0.742303         1.925111
