19
Iteration:  1576charge 0 multiplicity 1
 C         0.202740         1.032336        -0.226720
 C         1.501012         0.293461        -0.013927
 C         2.470408        -0.049186        -1.174188
 C         3.351995        -0.478662         0.163454
 C         2.722018        -1.740655         0.573744
 O         1.281812        -1.188288         0.475849
 O         4.675951         0.206137         0.100694
 C         3.967765         1.484481         0.416088
 C         2.670320         0.736236         0.836229
 H        -0.591170         1.184768         0.476663
 H         0.578601         2.072542        -0.368165
 H        -0.469580         0.839453        -1.010224
 H         2.157709        -0.942776        -1.843547
 H         3.104590         0.673618        -1.772342
 H         2.932961        -2.706222         0.084000
 H         2.932044        -2.002488         1.722601
 H         4.467176         1.956790         1.328792
 H         3.821077         2.125410        -0.464982
 H         2.394903         0.683107         1.822932
