19
Iteration:   308
 C         0.067359         0.841922        -0.248955
 C         1.438475         0.263009        -0.123874
 C         2.456261         0.024069        -1.194488
 C         3.398256        -0.356617         0.037092
 C         2.739215        -1.687114         0.553432
 O         1.350254        -1.063528         0.603859
 O         4.681159         0.175537         0.046884
 C         4.075437         1.387452         0.595131
 C         2.623263         0.744872         0.794667
 H        -0.138834         1.103797         0.778569
 H         0.063120         1.825202        -0.865121
 H        -0.735967         0.135936        -0.595673
 H         2.266237        -0.709479        -1.849337
 H         2.680803         0.993824        -1.530392
 H         2.894959        -2.508692        -0.176457
 H         2.888774        -2.095050         1.547582
 H         4.468529         1.664395         1.611944
 H         4.465040         2.126011        -0.097412
 H         2.355120         0.573576         1.900805
