19
Iteration:  2169
 C         0.269154         1.016073        -0.137152
 C         1.493850         0.307849        -0.048626
 C         2.417958        -0.187990        -1.188176
 C         3.329761        -0.466837         0.005399
 C         2.706145        -1.707327         0.561794
 O         1.277486        -1.131033         0.478172
 O         4.708014         0.236720         0.169597
 C         3.967977         1.502364         0.514134
 C         2.693707         0.734786         0.775323
 H        -0.107952         1.467369         0.817784
 H         0.377811         1.792786        -0.895209
 H        -0.505643         0.273150        -0.627487
 H         1.917204        -1.006449        -1.672933
 H         2.651557         0.656851        -1.969130
 H         2.801852        -2.533825        -0.152523
 H         2.812261        -2.033040         1.646614
 H         4.436202         2.017581         1.353955
 H         4.052365         2.100293        -0.387502
 H         2.544226         0.697685         1.827685
