19
Iteration:  4983charge 0 multiplicity 1
 C         0.216802         1.038518        -0.058898
 C         1.498239         0.293032        -0.087632
 C         2.370375        -0.066063        -1.194367
 C         3.338723        -0.445979         0.129297
 C         2.710913        -1.714459         0.558310
 O         1.319444        -1.124420         0.497774
 O         4.663557         0.081943         0.067112
 C         4.078880         1.462146         0.419451
 C         2.620550         0.821970         0.804862
 H        -0.188698         1.229974         0.898710
 H         0.241535         1.773765        -0.822962
 H        -0.549203         0.397369        -0.420534
 H         2.208317        -0.830522        -2.005385
 H         2.965498         0.797772        -1.652162
 H         2.758849        -2.619618        -0.044723
 H         2.871847        -2.234611         1.514582
 H         4.393340         2.008341         1.333326
 H         4.353380         2.138572        -0.491528
 H         2.489836         0.856201         1.895021
