19
Iteration:  2104charge 0 multiplicity 1
 C         0.058542         0.836625        -0.226243
 C         1.502253         0.297782        -0.054046
 C         2.464226        -0.052765        -1.268009
 C         3.312609        -0.367174         0.055162
 C         2.647672        -1.632063         0.595884
 O         1.336562        -1.045402         0.550110
 O         4.687762         0.120388         0.122685
 C         4.148289         1.389760         0.538670
 C         2.722332         0.788078         0.805290
 H        -0.512667         0.696903         0.722656
 H         0.083701         1.898181        -0.405741
 H        -0.470776         0.390598        -1.144479
 H         2.018538        -0.801434        -1.897702
 H         2.652614         0.940748        -1.800093
 H         2.814112        -2.461774        -0.106870
 H         2.993485        -1.947189         1.641849
 H         4.587800         1.873642         1.410396
 H         3.957441         2.003278        -0.273228
 H         2.508998         0.595998         1.826067
