19
Iteration:  3093
 C         0.131264         0.872652        -0.253845
 C         1.483031         0.282927         0.007877
 C         2.413086         0.011930        -1.211990
 C         3.311478        -0.407449        -0.020491
 C         2.587671        -1.585402         0.625403
 O         1.298399        -1.028092         0.588458
 O         4.714325         0.078929         0.026292
 C         4.115173         1.385573         0.502464
 C         2.753293         0.745765         0.818718
 H        -0.402075         0.728470         0.633477
 H         0.198705         1.954908        -0.471610
 H        -0.263061         0.167586        -0.944591
 H         2.229003        -0.791001        -1.866174
 H         2.737884         0.850136        -1.831690
 H         2.746914        -2.600229         0.400707
 H         2.948184        -1.533278         1.629084
 H         4.515661         1.607277         1.537199
 H         4.011965         2.168413        -0.296779
 H         2.820229         0.474822         1.849248
