19
Iteration:  2015
 C         0.232542         1.035825        -0.236114
 C         1.526947         0.286407        -0.006776
 C         2.418480        -0.154520        -1.166664
 C         3.361489        -0.450323         0.091683
 C         2.716027        -1.684677         0.517483
 O         1.264716        -1.143598         0.457356
 O         4.681220         0.236666         0.188492
 C         4.015790         1.521098         0.421438
 C         2.685056         0.644004         0.857401
 H         0.001157         1.372091         0.833921
 H         0.277847         1.995085        -0.770499
 H        -0.694662         0.536853        -0.568715
 H         1.819388        -0.925804        -1.704338
 H         2.718870         0.652041        -1.776680
 H         2.707860        -2.582765        -0.124599
 H         3.006615        -2.031306         1.537205
 H         4.470442         2.079286         1.244603
 H         3.924577         2.056813        -0.483718
 H         2.448983         0.493570         1.835163
