19
Iteration:  4662charge 0 multiplicity 1
 C         0.209299         1.087456        -0.166743
 C         1.506662         0.295334        -0.060710
 C         2.366848        -0.124142        -1.181053
 C         3.382689        -0.421779         0.081743
 C         2.692753        -1.721577         0.554437
 O         1.306242        -1.133112         0.517818
 O         4.706397         0.173441         0.062090
 C         4.002431         1.459172         0.414136
 C         2.693686         0.645380         0.891681
 H        -0.026944         1.447079         0.929487
 H         0.172083         2.093937        -0.698443
 H        -0.645080         0.495234        -0.570860
 H         1.949869        -0.737622        -2.027214
 H         2.927645         0.609591        -1.639916
 H         2.863556        -2.598284        -0.084616
 H         2.772561        -2.008224         1.603306
 H         4.329363         2.108996         1.273225
 H         3.964367         2.253903        -0.367543
 H         2.529840         0.555885         1.995737
