19
Iteration:  2202charge 0 multiplicity 1
 C         0.057552         0.897782        -0.143038
 C         1.463597         0.262036        -0.197094
 C         2.556224         0.029920        -1.179979
 C         3.338382        -0.421820        -0.041778
 C         2.728345        -1.652542         0.632065
 O         1.264981        -1.045601         0.599569
 O         4.686179         0.050821         0.090656
 C         4.047275         1.451365         0.513632
 C         2.677028         0.757615         0.810059
 H        -0.309360         1.083633         0.900213
 H         0.083670         1.832269        -0.722019
 H        -0.653727         0.202926        -0.831894
 H         2.469607        -0.732830        -1.928912
 H         2.985219         1.094040        -1.547974
 H         2.868855        -2.593899         0.093664
 H         3.033334        -1.902524         1.714898
 H         4.576978         2.043108         1.276389
 H         4.095475         1.829317        -0.487861
 H         2.495846         0.676362         1.859319
