19
Iteration:   953charge 0 multiplicity 1
 C         0.135821         0.971882        -0.221326
 C         1.521997         0.216369        -0.108885
 C         2.446844        -0.078095        -1.169346
 C         3.407639        -0.468760        -0.019119
 C         2.713249        -1.678712         0.511550
 O         1.306417        -1.038398         0.568180
 O         4.727273         0.215561         0.128617
 C         3.925755         1.523360         0.571771
 C         2.685125         0.612284         0.834386
 H        -0.544336         1.070932         0.730014
 H         0.270570         1.959361        -0.666398
 H        -0.501274         0.283176        -0.835760
 H         2.241619        -0.786978        -2.001898
 H         2.901158         0.805929        -1.595942
 H         2.517529        -2.684552         0.011724
 H         3.105120        -1.723385         1.565311
 H         4.443257         2.037736         1.347557
 H         3.780430         2.041667        -0.292477
 H         2.502803         0.492577         1.897844
