19
Iteration:  3618
 C         0.265928         1.101042        -0.153950
 C         1.480308         0.245431        -0.072811
 C         2.481553        -0.139799        -1.228588
 C         3.329767        -0.487164         0.054694
 C         2.647477        -1.679539         0.581419
 O         1.336602        -1.090188         0.589790
 O         4.700130         0.203522         0.106277
 C         3.911318         1.421048         0.359122
 C         2.680764         0.685803         0.847033
 H        -0.252731         1.177778         0.821624
 H         0.452841         2.172060        -0.403602
 H        -0.387551         0.574187        -0.859692
 H         2.135203        -0.907891        -1.917551
 H         2.900848         0.769351        -1.681528
 H         2.643091        -2.522182        -0.058014
 H         2.952275        -1.979898         1.595321
 H         4.192617         1.960597         1.284639
 H         3.853073         2.186234        -0.444856
 H         2.647411         0.501547         1.979538
