19
Iteration:  4471charge 0 multiplicity 1
 C         0.149960         0.933585        -0.121760
 C         1.508531         0.293400        -0.042522
 C         2.447680        -0.043220        -1.155134
 C         3.396826        -0.368325        -0.026687
 C         2.640429        -1.652430         0.585895
 O         1.283833        -1.028881         0.529432
 O         4.725008         0.096941         0.111577
 C         4.085076         1.358628         0.420182
 C         2.664697         0.760559         0.810855
 H        -0.275509         1.011714         0.852071
 H        -0.073000         1.689195        -0.846389
 H        -0.430117         0.104133        -0.484129
 H         2.023251        -0.811476        -1.861782
 H         2.649097         0.817037        -1.753912
 H         2.446245        -2.499141        -0.040550
 H         2.936494        -1.788449         1.602763
 H         4.508069         1.949643         1.263288
 H         4.065718         2.061729        -0.419637
 H         2.584589         0.502900         1.878251
