19
Iteration:  1659
 C         0.069983         0.841353        -0.232951
 C         1.556175         0.308507        -0.032931
 C         2.476875        -0.023689        -1.179461
 C         3.343083        -0.361114         0.086738
 C         2.709539        -1.581463         0.590272
 O         1.273164        -1.059917         0.416981
 O         4.658058         0.085320         0.147977
 C         4.143626         1.379673         0.463709
 C         2.635924         0.808319         0.908961
 H        -0.281636         1.159543         0.774220
 H        -0.080467         1.627466        -0.931896
 H        -0.448014        -0.051159        -0.688312
 H         2.154676        -0.962145        -1.690553
 H         2.752363         0.684603        -1.856416
 H         2.649853        -2.376589        -0.140673
 H         3.070319        -1.803883         1.511267
 H         4.513142         1.895596         1.263121
 H         4.197080         2.016662        -0.413556
 H         2.639067         0.459156         1.979061
