19
Iteration:  3155charge 0 multiplicity 1
 C         0.223582         0.983133        -0.116239
 C         1.476169         0.232873        -0.000344
 C         2.360546        -0.017229        -1.236568
 C         3.315942        -0.435760         0.120453
 C         2.712612        -1.666617         0.553415
 O         1.237366        -1.087463         0.510770
 O         4.757055         0.154553         0.187419
 C         4.038633         1.412586         0.335714
 C         2.715396         0.720069         0.810944
 H        -0.299432         1.184933         0.861964
 H         0.330896         1.893600        -0.730220
 H        -0.447520         0.443120        -0.933818
 H         1.989239        -0.874067        -1.849914
 H         2.777176         0.818774        -1.931314
 H         2.909685        -2.652817        -0.055273
 H         2.861599        -1.860479         1.687744
 H         4.575160         2.019173         1.027077
 H         4.000824         1.947055        -0.666996
 H         2.565720         0.766639         1.914209
