19
Iteration:  2683charge 0 multiplicity 1
 C         0.124931         0.825225        -0.311799
 C         1.499506         0.323038         0.032984
 C         2.469413        -0.034531        -1.131994
 C         3.331710        -0.427691         0.138665
 C         2.666961        -1.659351         0.542209
 O         1.330797        -0.991419         0.624983
 O         4.608813         0.062759        -0.013230
 C         4.136265         1.435277         0.459324
 C         2.711176         0.815111         0.840883
 H        -0.368479         1.224549         0.604397
 H         0.056132         1.602485        -1.201535
 H        -0.538788         0.025062        -0.631109
 H         2.082068        -0.656971        -1.934958
 H         2.695958         0.992314        -1.629152
 H         2.677875        -2.534025        -0.131196
 H         3.014547        -2.127382         1.494240
 H         4.704719         1.738327         1.250079
 H         4.211934         2.235312        -0.250402
 H         2.440586         0.546560         1.899014
