19
Iteration:   152
 C         0.071270         0.867160        -0.242122
 C         1.444606         0.269342        -0.042964
 C         2.476785         0.041575        -1.099314
 C         3.355620        -0.422362         0.082599
 C         2.699754        -1.675212         0.495155
 O         1.349596        -1.083353         0.532710
 O         4.693593         0.185767         0.063037
 C         4.041653         1.424993         0.481902
 C         2.707027         0.705686         0.877068
 H        -0.464224         1.076701         0.754605
 H         0.104550         1.826430        -0.865605
 H        -0.518153         0.115816        -0.836523
 H         2.264781        -0.632602        -1.885435
 H         2.968592         0.852102        -1.568682
 H         2.679784        -2.569050        -0.129316
 H         2.884619        -1.885985         1.564549
 H         4.592424         1.937344         1.274477
 H         3.878467         2.141795        -0.419305
 H         2.648479         0.475658         2.048555
