19
Iteration:  3295charge 0 multiplicity 1
 C         0.049020         0.953470        -0.133536
 C         1.466868         0.335296        -0.091259
 C         2.449796        -0.151206        -1.218134
 C         3.323374        -0.416847         0.075668
 C         2.691383        -1.711584         0.605204
 O         1.348355        -1.018521         0.501179
 O         4.734528         0.105530         0.083013
 C         4.068051         1.440200         0.434649
 C         2.685679         0.814755         0.868797
 H        -0.190487         0.910938         0.916590
 H         0.064062         1.946487        -0.432303
 H        -0.534228         0.569758        -0.910248
 H         2.132857        -0.999678        -1.850375
 H         2.883715         0.655361        -1.925816
 H         2.708009        -2.582355        -0.007088
 H         2.954232        -2.008449         1.573956
 H         4.609628         1.775471         1.364774
 H         3.995258         2.218945        -0.374944
 H         2.531474         0.465873         1.896478
