19
Iteration:  2887charge 0 multiplicity 1
 C         0.198530         1.061887        -0.109072
 C         1.469151         0.305119        -0.094630
 C         2.416635        -0.065221        -1.256867
 C         3.394193        -0.426919         0.118270
 C         2.666524        -1.654154         0.704497
 O         1.269336        -1.184052         0.446418
 O         4.722798         0.169797         0.104549
 C         3.967050         1.406417         0.395783
 C         2.727233         0.671393         0.812668
 H        -0.107737         1.321734         0.869748
 H         0.361231         2.095363        -0.545778
 H        -0.628272         0.427553        -0.388434
 H         2.152173        -0.845580        -1.945342
 H         2.907801         0.865029        -1.765093
 H         2.836306        -2.621173         0.153447
 H         2.983765        -1.914339         1.718972
 H         4.624141         2.161138         0.941326
 H         3.679665         1.875944        -0.484499
 H         2.533049         0.783725         1.875415
