19
Iteration:   936
 C         0.137791         0.880354        -0.301090
 C         1.490386         0.316595        -0.015598
 C         2.508088         0.030397        -1.249985
 C         3.345120        -0.380564         0.039772
 C         2.685094        -1.688774         0.583425
 O         1.367009        -1.143127         0.597161
 O         4.630961         0.152074         0.096258
 C         3.989085         1.444523         0.500885
 C         2.671247         0.726793         0.876748
 H        -0.481607         0.803622         0.534017
 H         0.349540         1.977977        -0.431573
 H        -0.430946         0.366080        -1.080835
 H         2.245006        -0.761235        -1.929647
 H         2.802996         0.940291        -1.850133
 H         2.795467        -2.434755        -0.167508
 H         2.945203        -2.023499         1.580888
 H         4.535544         1.791917         1.477162
 H         3.990624         2.280602        -0.345585
 H         2.646645         0.473045         2.008250
