19
Iteration:   368
 C         0.108863         0.905137        -0.149979
 C         1.520753         0.271607        -0.060891
 C         2.540184         0.025029        -1.219086
 C         3.431413        -0.495448        -0.019646
 C         2.708164        -1.693660         0.569203
 O         1.281143        -1.119757         0.553796
 O         4.710525         0.196852         0.202661
 C         3.915731         1.483684         0.424800
 C         2.650421         0.697665         0.825167
 H        -0.509363         0.797949         0.756617
 H         0.271336         1.952098        -0.202399
 H        -0.478400         0.617323        -1.019858
 H         2.201059        -0.515354        -2.219837
 H         3.000772         0.877699        -1.771446
 H         2.768636        -2.552970        -0.057112
 H         2.838199        -1.975988         1.602519
 H         4.337472         2.146855         1.230303
 H         3.925689         1.923529        -0.611726
 H         2.562582         0.673528         1.857005
