19
Iteration:  2146charge 0 multiplicity 1
 C         0.137423         1.077139        -0.229877
 C         1.463929         0.236753        -0.072137
 C         2.454536        -0.101599        -1.209754
 C         3.429226        -0.425717         0.090711
 C         2.679972        -1.673959         0.584501
 O         1.331615        -1.138332         0.511564
 O         4.677417         0.214650         0.096923
 C         3.965549         1.453935         0.440051
 C         2.702218         0.660613         0.968179
 H        -0.270135         1.376895         0.797007
 H         0.303905         1.967302        -0.810513
 H        -0.662490         0.514186        -0.849856
 H         2.251355        -1.006402        -1.823605
 H         2.911006         0.760257        -1.839269
 H         2.720297        -2.456409        -0.186506
 H         2.788854        -2.099209         1.622102
 H         4.560486         1.987752         1.108220
 H         3.888688         1.987726        -0.531493
 H         2.658949         0.529905         2.018433
