19
Iteration:  2231charge 0 multiplicity 1
 C         0.119865         0.778184        -0.216878
 C         1.518501         0.359957        -0.044097
 C         2.327442        -0.002824        -1.132544
 C         3.347772        -0.381107         0.018199
 C         2.589554        -1.680678         0.591075
 O         1.314486        -1.037781         0.487079
 O         4.724634         0.110681         0.129430
 C         4.171982         1.437213         0.463348
 C         2.720530         0.777952         0.857934
 H        -0.646331         0.673095         0.548329
 H         0.211076         1.773839        -0.556423
 H        -0.182988         0.211764        -1.029284
 H         1.892848        -0.931617        -1.513777
 H         2.646587         0.694242        -1.898140
 H         2.830438        -2.520897        -0.073872
 H         2.767544        -1.918538         1.598275
 H         4.559674         2.014324         1.281833
 H         4.400760         2.066897        -0.511575
 H         2.637044         0.819929         1.944565
