19
Iteration:  3464
 C         0.219291         1.038801        -0.167204
 C         1.513678         0.250604        -0.018830
 C         2.513471        -0.044759        -1.179729
 C         3.379175        -0.431701         0.123136
 C         2.569351        -1.722851         0.637598
 O         1.268003        -1.140489         0.537782
 O         4.719711         0.254489         0.009450
 C         4.035117         1.432658         0.357251
 C         2.615994         0.674862         0.888764
 H        -0.290819         0.955146         0.746222
 H         0.516115         2.031784        -0.548659
 H        -0.544707         0.655049        -0.865058
 H         2.317389        -0.804061        -1.970989
 H         3.005538         0.751388        -1.723795
 H         2.540157        -2.519085        -0.111042
 H         2.778626        -2.089337         1.669999
 H         4.611189         1.992744         1.151293
 H         3.884931         2.053845        -0.665586
 H         2.513305         0.288522         1.968537
