19
Iteration:  1360
 C         0.056915         0.877689        -0.240974
 C         1.463919         0.297972        -0.112641
 C         2.479661         0.001080        -1.154159
 C         3.362126        -0.396317         0.092310
 C         2.684513        -1.668256         0.558780
 O         1.301774        -1.093748         0.559746
 O         4.688364         0.144184         0.136738
 C         4.123605         1.402073         0.450211
 C         2.704509         0.756503         0.813553
 H        -0.494590         1.156686         0.646380
 H         0.014986         1.759519        -0.955683
 H        -0.471127         0.116820        -0.834846
 H         2.129377        -0.712500        -1.901889
 H         2.679963         0.963979        -1.433171
 H         2.771729        -2.480557        -0.215656
 H         2.921055        -2.026187         1.555105
 H         4.580539         1.793264         1.485133
 H         4.355616         2.218344        -0.249221
 H         2.458059         0.664165         1.972869
