19
Iteration:   970charge 0 multiplicity 1
 C         0.190343         0.973016        -0.154495
 C         1.494797         0.234696        -0.039490
 C         2.501836        -0.076343        -1.269406
 C         3.392087        -0.391626         0.043149
 C         2.681864        -1.683496         0.588122
 O         1.271775        -1.133396         0.496070
 O         4.725177         0.277537         0.164783
 C         3.948145         1.420117         0.476136
 C         2.655892         0.671495         0.806499
 H        -0.058788         1.269883         0.806105
 H         0.318242         1.861530        -0.782838
 H        -0.582539         0.409968        -0.640240
 H         2.115815        -0.965015        -1.793077
 H         2.767306         0.765998        -1.918257
 H         2.773261        -2.462258        -0.141641
 H         2.827608        -2.139342         1.597004
 H         4.338327         1.875130         1.439907
 H         3.922372         2.340980        -0.341816
 H         2.538398         0.473532         1.891892
