19
Iteration:  2660
 C         0.054697         0.859088        -0.287911
 C         1.427770         0.343015        -0.076355
 C         2.425919        -0.006928        -1.227060
 C         3.347662        -0.433160        -0.004373
 C         2.642083        -1.608186         0.554923
 O         1.284741        -1.021430         0.717050
 O         4.780886         0.114638         0.058242
 C         4.121192         1.404611         0.546763
 C         2.818472         0.698436         0.827014
 H        -0.588895         0.940912         0.596407
 H        -0.121929         1.766754        -1.010038
 H        -0.523063         0.138144        -0.916802
 H         1.990091        -0.936338        -1.654117
 H         2.451583         0.730595        -2.078966
 H         2.620904        -2.613105         0.091620
 H         3.058028        -1.809542         1.542620
 H         4.568373         1.769365         1.386673
 H         4.163484         2.223346        -0.175215
 H         2.575097         0.729721         1.918645
