19
Iteration:  1946charge 0 multiplicity 1
 C         0.139323         0.783646        -0.221318
 C         1.488558         0.334801        -0.071985
 C         2.357466        -0.009271        -1.171871
 C         3.424835        -0.394516         0.050073
 C         2.610453        -1.578943         0.564634
 O         1.309245        -1.088953         0.478881
 O         4.690645         0.107187         0.157733
 C         4.140694         1.418646         0.481151
 C         2.695921         0.800385         0.858446
 H        -0.542654         0.790460         0.655745
 H         0.091138         1.940168        -0.564311
 H        -0.306858         0.283663        -1.120604
 H         1.845992        -0.834196        -1.712712
 H         2.764392         0.854031        -1.794501
 H         2.689202        -2.583822         0.048556
 H         2.897717        -1.864049         1.579837
 H         4.724919         1.600312         1.277690
 H         4.096107         2.103485        -0.326556
 H         2.745356         0.673626         1.998501
