19
Iteration:  2690charge 0 multiplicity 1
 C         0.187041         0.851405        -0.266680
 C         1.500319         0.266149        -0.024887
 C         2.481442         0.044436        -1.091578
 C         3.317357        -0.425640         0.134130
 C         2.687832        -1.688481         0.550016
 O         1.301543        -1.015776         0.609998
 O         4.620258         0.044810        -0.009862
 C         4.073183         1.461512         0.428505
 C         2.715551         0.787857         0.836000
 H        -0.338912         1.323762         0.552496
 H         0.123829         1.531615        -1.123771
 H        -0.495002        -0.007662        -0.575883
 H         2.122811        -0.756704        -1.810882
 H         2.657769         0.961584        -1.595105
 H         2.657493        -2.458041        -0.215077
 H         2.879317        -1.921334         1.566646
 H         4.618190         1.613680         1.441411
 H         4.161856         2.185508        -0.450669
 H         2.600616         1.005141         1.921405
