19
Iteration:  4848charge 0 multiplicity 1
 C         0.105296         1.012417        -0.065015
 C         1.485451         0.300924        -0.067036
 C         2.474994        -0.050122        -1.167595
 C         3.332866        -0.443876         0.046345
 C         2.665219        -1.659632         0.554738
 O         1.367014        -1.045497         0.515669
 O         4.650760         0.066694         0.060280
 C         4.074995         1.381886         0.430465
 C         2.658319         0.739798         0.801906
 H        -0.172019         1.145338         0.998536
 H         0.226228         1.908376        -0.673168
 H        -0.551445         0.415384        -0.572388
 H         2.406353        -0.790918        -1.938577
 H         2.813476         0.728233        -1.819835
 H         2.873242        -2.600406        -0.031769
 H         2.909257        -1.882788         1.629209
 H         4.519233         1.942583         1.305962
 H         4.039845         2.180671        -0.323249
 H         2.373522         0.744254         1.897494
