19
Iteration:  3983
 C         0.116289         0.892175        -0.211076
 C         1.515626         0.238740        -0.023676
 C         2.397626        -0.017518        -1.242427
 C         3.393734        -0.428847        -0.037081
 C         2.552949        -1.659126         0.638506
 O         1.231178        -0.979503         0.578362
 O         4.782735         0.118226         0.083354
 C         4.146325         1.424806         0.487746
 C         2.738643         0.741528         0.820984
 H        -0.378073         1.024962         0.755004
 H        -0.006308         1.864522        -0.720620
 H        -0.408189        -0.013243        -0.616198
 H         2.282486        -0.844008        -1.958299
 H         2.531036         0.847203        -1.905468
 H         2.506572        -2.540783         0.051491
 H         2.834310        -2.016246         1.634465
 H         4.677695         1.737161         1.425202
 H         4.182067         2.221676        -0.251153
 H         2.514146         0.712083         1.897915
