19
Iteration:  2142charge 0 multiplicity 1
 C         0.141670         1.057353        -0.224437
 C         1.438844         0.246368        -0.064285
 C         2.518660        -0.070904        -1.188195
 C         3.381377        -0.441970         0.083465
 C         2.697032        -1.675076         0.603687
 O         1.330108        -1.130897         0.524527
 O         4.681204         0.207558         0.081641
 C         3.938956         1.408685         0.455573
 C         2.708382         0.674953         0.910599
 H        -0.346191         1.317452         0.700620
 H         0.428132         1.981328        -0.779959
 H        -0.545724         0.494888        -0.762531
 H         2.232918        -0.900001        -1.906714
 H         2.772228         0.782214        -1.722436
 H         2.782581        -2.400652        -0.213375
 H         2.749552        -2.085361         1.567568
 H         4.564301         2.108452         1.075061
 H         3.922955         1.988946        -0.515889
 H         2.648472         0.600015         2.042609
