19
Iteration:    53
 C         0.073476         0.838791        -0.231559
 C         1.491012         0.329293         0.027193
 C         2.377075        -0.001280        -1.234977
 C         3.351812        -0.401845         0.027666
 C         2.734813        -1.683287         0.567177
 O         1.264892        -1.037860         0.513085
 O         4.760896         0.171855         0.121771
 C         4.058485         1.491010         0.503426
 C         2.767209         0.650236         0.867059
 H        -0.741010         0.490414         0.556353
 H         0.090687         1.891311        -0.514264
 H        -0.340783         0.380958        -1.181198
 H         1.917265        -0.746016        -1.791696
 H         2.760518         0.660980        -1.981431
 H         2.808654        -2.578933         0.012316
 H         2.991428        -1.934360         1.604737
 H         4.601590         1.925981         1.313445
 H         3.838261         2.252886        -0.437804
 H         2.707732         0.353870         2.049935
