19
Iteration:  3779
 C         0.291219         1.128740        -0.159535
 C         1.490969         0.278536        -0.074941
 C         2.384641        -0.148009        -1.219130
 C         3.338208        -0.455493         0.003131
 C         2.646036        -1.683415         0.577751
 O         1.311171        -1.156808         0.546690
 O         4.690524         0.209939         0.141612
 C         3.978266         1.470358         0.434878
 C         2.698388         0.627509         0.801236
 H        -0.111127         1.200498         0.824604
 H         0.601403         2.173591        -0.241623
 H        -0.452270         0.706418        -0.795238
 H         2.187527        -1.107003        -1.811123
 H         2.685551         0.765263        -1.831961
 H         2.642744        -2.766688         0.185806
 H         2.886861        -1.749948         1.664067
 H         4.194706         2.124785         1.302321
 H         3.968653         2.205771        -0.507670
 H         2.724409         0.483864         1.930329
