19
Iteration:  2762
 C         0.212569         1.014492        -0.113419
 C         1.461447         0.224909        -0.157926
 C         2.486198        -0.134892        -1.234406
 C         3.337123        -0.422360         0.067267
 C         2.672890        -1.666535         0.641392
 O         1.283751        -1.100654         0.590934
 O         4.607645         0.145630         0.103452
 C         4.070482         1.490847         0.403864
 C         2.694111         0.750436         0.747556
 H        -0.167625         0.817607         0.932143
 H         0.335904         2.096263        -0.186465
 H        -0.642622         0.754886        -0.726302
 H         2.617126        -0.987387        -1.890918
 H         2.934063         0.729736        -1.733864
 H         2.684067        -2.547433        -0.010697
 H         2.939299        -1.789678         1.722355
 H         4.544965         1.885764         1.255194
 H         4.131116         2.087338        -0.435257
 H         2.426815         0.658115         1.804751
