19
Iteration:  1407
 C         0.151290         1.018944        -0.187444
 C         1.477820         0.260765        -0.094063
 C         2.504274        -0.026887        -1.232079
 C         3.366110        -0.482931         0.056474
 C         2.646023        -1.699013         0.626120
 O         1.368026        -1.113888         0.507021
 O         4.688401         0.145516         0.173814
 C         3.926174         1.499847         0.437215
 C         2.675955         0.672159         0.778802
 H        -0.236843         0.886796         0.813140
 H         0.257075         2.075288        -0.207441
 H        -0.615389         0.713972        -0.864087
 H         2.305323        -0.877657        -1.785348
 H         3.146681         0.836151        -1.531553
 H         2.782121        -2.586596        -0.075794
 H         2.880248        -1.794751         1.696367
 H         4.442682         2.067503         1.217005
 H         4.010104         2.135166        -0.543484
 H         2.441917         0.628204         1.861411
