19
Iteration:  1691charge 0 multiplicity 1
 C         0.120517         0.997079        -0.262622
 C         1.487464         0.256501        -0.033169
 C         2.529702         0.012474        -1.275317
 C         3.417019        -0.440965         0.067868
 C         2.667096        -1.725941         0.627562
 O         1.285865        -1.108904         0.574685
 O         4.693151         0.152571         0.148676
 C         4.018626         1.476920         0.448679
 C         2.639683         0.710050         0.786809
 H        -0.208524         1.250520         0.815025
 H         0.323584         1.949689        -0.730531
 H        -0.715337         0.258823        -0.649747
 H         2.313277        -0.749293        -2.077507
 H         2.874867         0.943852        -1.585498
 H         2.679682        -2.624032        -0.026717
 H         3.062414        -2.081790         1.549356
 H         4.194215         1.914422         1.348653
 H         3.998442         2.099274        -0.361766
 H         2.541636         0.416302         1.924393
