19
Iteration:   845charge 0 multiplicity 1
 C         0.159438         1.013365        -0.187810
 C         1.448559         0.252228        -0.103445
 C         2.462040        -0.096461        -1.184900
 C         3.375818        -0.374925         0.059642
 C         2.780827        -1.726774         0.545226
 O         1.309216        -1.200568         0.464799
 O         4.645260         0.218405         0.146250
 C         4.048828         1.456312         0.528922
 C         2.594777         0.764496         0.846642
 H        -0.209631         1.227052         0.909561
 H         0.333378         1.937636        -0.714077
 H        -0.684021         0.461881        -0.639667
 H         2.362817        -1.009881        -1.839393
 H         2.841020         0.796909        -1.595006
 H         2.941173        -2.485982        -0.207985
 H         2.999094        -2.024164         1.524647
 H         4.726670         2.126208         1.259831
 H         3.980227         2.187439        -0.370533
 H         2.280093         0.545397         1.939576
