19
Iteration:  3676charge 0 multiplicity 1
 C         0.106232         0.970565        -0.155796
 C         1.466244         0.268401        -0.118447
 C         2.447433         0.060825        -1.235632
 C         3.322146        -0.428106         0.040047
 C         2.712190        -1.671729         0.568552
 O         1.288201        -1.101624         0.615162
 O         4.747748         0.055560         0.129520
 C         4.098169         1.381467         0.423072
 C         2.666750         0.812068         0.816298
 H        -0.308059         1.097279         0.837208
 H         0.094176         1.746186        -0.862158
 H        -0.537526         0.221224        -0.628032
 H         2.267900        -0.729521        -1.892313
 H         2.701469         0.923653        -1.773146
 H         2.650695        -2.652577         0.027953
 H         3.069337        -1.798104         1.608228
 H         4.552033         1.714496         1.357294
 H         3.963333         2.195960        -0.386968
 H         2.433412         0.804044         1.837935
