19
Iteration:  1437charge 0 multiplicity 1
 C         0.247593         1.034899        -0.222548
 C         1.463537         0.186219        -0.045761
 C         2.448328        -0.114297        -1.186263
 C         3.340634        -0.411178         0.035528
 C         2.679989        -1.613471         0.541667
 O         1.297481        -1.142317         0.533619
 O         4.669305         0.207827         0.165871
 C         4.004297         1.473247         0.459201
 C         2.664326         0.698032         0.812592
 H        -0.237428         0.788409         0.731734
 H         0.589238         2.134701        -0.329667
 H        -0.455880         0.615966        -0.950967
 H         2.267018        -1.030067        -1.722439
 H         2.886074         0.654141        -1.822980
 H         2.890648        -2.437970        -0.196553
 H         2.865728        -1.974606         1.535281
 H         4.414750         1.919228         1.433448
 H         4.122355         2.088398        -0.446072
 H         2.290084         0.662113         1.940445
