19
Iteration:  2042charge 0 multiplicity 1
 C         0.148207         0.981082        -0.224750
 C         1.521481         0.253106        -0.000558
 C         2.544285        -0.002496        -1.211239
 C         3.388058        -0.416972         0.113073
 C         2.696869        -1.672154         0.568560
 O         1.295260        -1.123646         0.517519
 O         4.664431         0.121598         0.130953
 C         3.958037         1.429774         0.404625
 C         2.666605         0.729198         0.814788
 H        -0.354210         1.117202         0.718164
 H         0.298745         2.017303        -0.546786
 H        -0.649514         0.508749        -0.789555
 H         2.257603        -0.738581        -1.966560
 H         2.718371         1.011444        -1.699324
 H         2.624229        -2.632429         0.062270
 H         3.054080        -1.932364         1.575905
 H         4.557350         1.855534         1.344972
 H         3.877872         2.150651        -0.523157
 H         2.468928         0.562175         1.971001
