19
Iteration:   839
 C         0.137259         1.037469        -0.203594
 C         1.439131         0.249910        -0.142625
 C         2.461152        -0.108940        -1.101870
 C         3.416207        -0.374987         0.044116
 C         2.778910        -1.737703         0.528541
 O         1.301508        -1.218101         0.451949
 O         4.663390         0.212556         0.123682
 C         4.009596         1.504063         0.523523
 C         2.626599         0.786644         0.917240
 H        -0.138808         1.285490         0.751965
 H         0.363716         1.966537        -0.793569
 H        -0.693382         0.424651        -0.575275
 H         2.323813        -0.896684        -1.811900
 H         2.725175         0.813828        -1.766745
 H         2.808465        -2.622750        -0.168199
 H         3.065137        -1.995859         1.625307
 H         4.568291         1.903623         1.334656
 H         4.017551         2.002280        -0.442558
 H         2.382489         0.439665         1.947955
