19
Iteration:  3401
 C         0.020424         0.843354        -0.234950
 C         1.456486         0.280981        -0.060491
 C         2.462614         0.027598        -1.181365
 C         3.379250        -0.409407        -0.064228
 C         2.642372        -1.600935         0.579417
 O         1.284675        -1.032503         0.654751
 O         4.693398         0.054292         0.152882
 C         4.164517         1.403549         0.459364
 C         2.753092         0.795694         0.739107
 H        -0.452528         0.657678         0.815146
 H        -0.067699         1.968253        -0.439626
 H        -0.629269         0.054650        -0.703144
 H         2.319016        -0.608116        -2.051164
 H         2.749320         1.024636        -1.575558
 H         2.593647        -2.430520        -0.200619
 H         2.953793        -1.945257         1.659894
 H         4.497737         1.955281         1.416684
 H         4.287949         2.010848        -0.368837
 H         2.843378         0.385608         1.780358
