19
Iteration:   580charge 0 multiplicity 1
 C         0.204668         0.884644        -0.247830
 C         1.482760         0.182498        -0.105583
 C         2.429908         0.035342        -1.186995
 C         3.342967        -0.393896         0.018394
 C         2.703648        -1.647553         0.524710
 O         1.339537        -1.075643         0.602398
 O         4.637824         0.210612         0.202766
 C         4.024304         1.425917         0.516981
 C         2.649524         0.656172         0.767611
 H        -0.281608         0.735351         0.688699
 H         0.342689         1.950456        -0.416272
 H        -0.444002         0.411185        -0.969544
 H         2.184552        -0.574184        -2.055488
 H         2.874636         1.022259        -1.569120
 H         2.916010        -2.462307        -0.157377
 H         2.924035        -1.986946         1.530550
 H         4.474150         1.954888         1.335766
 H         3.954837         2.079945        -0.506225
 H         2.649606         0.501807         1.890346
