19
Iteration:  1260
 C         0.220224         0.937905        -0.167845
 C         1.530887         0.290233        -0.018283
 C         2.483175        -0.064821        -1.272848
 C         3.373299        -0.442155        -0.005508
 C         2.657816        -1.676545         0.579792
 O         1.333951        -1.110554         0.489411
 O         4.665612         0.111990         0.204170
 C         3.943419         1.502334         0.446460
 C         2.663818         0.737129         0.832345
 H        -0.344667         0.708675         0.776975
 H         0.302336         2.054777        -0.158735
 H        -0.485046         0.667002        -0.990221
 H         2.276479        -0.883341        -2.010465
 H         2.707683         0.834003        -1.867553
 H         2.714643        -2.730918         0.175451
 H         2.896784        -1.888343         1.657459
 H         4.361809         2.274240         1.205876
 H         4.027320         2.116030        -0.483370
 H         2.369771         0.920278         1.964198
