19
Iteration:   194charge 0 multiplicity 1
 C         0.035146         0.785887        -0.217547
 C         1.480097         0.355890        -0.032891
 C         2.391206        -0.021375        -1.233944
 C         3.353100        -0.370693        -0.025489
 C         2.703357        -1.577198         0.524315
 O         1.348994        -1.076602         0.548845
 O         4.694558         0.143350         0.112857
 C         4.089460         1.406775         0.572035
 C         2.731172         0.710351         0.845849
 H        -0.570020         0.534306         0.741723
 H         0.128564         1.856809        -0.325234
 H        -0.465979         0.553164        -1.160655
 H         2.081346        -0.936983        -1.827535
 H         2.800674         0.827546        -1.906145
 H         2.859430        -2.599012        -0.026842
 H         3.131202        -1.761711         1.592625
 H         4.517881         1.727907         1.450761
 H         4.209809         2.193600        -0.214369
 H         2.497688         0.573841         1.995965
