19
Iteration:  4133
 C         0.101983         0.866039        -0.286365
 C         1.400564         0.263815        -0.027964
 C         2.436815         0.043409        -1.178698
 C         3.347956        -0.424586         0.063841
 C         2.727000        -1.648385         0.521177
 O         1.291321        -0.950536         0.636002
 O         4.700321         0.011976         0.046532
 C         4.044449         1.401808         0.440262
 C         2.781134         0.738928         0.891498
 H        -0.289610         1.077291         0.692860
 H         0.198406         1.801155        -0.847712
 H        -0.476790         0.134575        -0.845146
 H         2.140434        -0.818167        -1.705914
 H         2.899778         0.939241        -1.585538
 H         2.617970        -2.484071        -0.158643
 H         2.886608        -1.772741         1.598656
 H         4.683741         1.886877         1.270606
 H         3.991725         2.200577        -0.340849
 H         2.690709         0.668223         2.013479
