19
Iteration:  2803
 C         0.167280         0.791935        -0.320902
 C         1.509852         0.378555         0.033844
 C         2.372004        -0.007405        -1.165096
 C         3.279135        -0.385112         0.052540
 C         2.655431        -1.644638         0.608719
 O         1.295943        -1.024014         0.583722
 O         4.652552         0.074599         0.068498
 C         4.137566         1.441935         0.385588
 C         2.776919         0.720619         0.946935
 H        -0.403720         0.689152         0.645008
 H         0.184954         1.834787        -0.777600
 H        -0.208522         0.275833        -1.150440
 H         1.792663        -0.672718        -1.783752
 H         2.697739         0.848661        -1.820376
 H         2.653459        -2.504177        -0.052217
 H         3.084385        -1.867673         1.556652
 H         4.798441         1.914689         1.059112
 H         3.901120         2.114995        -0.527438
 H         2.832785         0.517987         2.019423
