19
Iteration:  3802
 C         0.177118         1.042500        -0.100382
 C         1.440983         0.270337        -0.058110
 C         2.521570        -0.116988        -1.216366
 C         3.349039        -0.431485         0.149887
 C         2.707788        -1.700224         0.524066
 O         1.261034        -1.051446         0.562963
 O         4.725667         0.130791         0.092915
 C         3.983867         1.421858         0.417533
 C         2.634091         0.711234         0.758512
 H        -0.144775         1.372722         0.863946
 H         0.532836         1.994249        -0.504004
 H        -0.567326         0.475798        -0.603431
 H         2.246628        -0.927426        -1.989741
 H         3.167694         0.680014        -1.666785
 H         2.627952        -2.523486        -0.219201
 H         3.076762        -2.108530         1.492140
 H         4.612414         1.953465         1.179516
 H         3.835624         2.144840        -0.506926
 H         2.336780         0.808978         1.857059
