19
Iteration:  3072
 C         0.119826         1.034856        -0.247684
 C         1.456217         0.289917        -0.048200
 C         2.393590        -0.092981        -1.151008
 C         3.319309        -0.475313         0.017146
 C         2.741393        -1.633899         0.694284
 O         1.314684        -1.127646         0.495235
 O         4.682065         0.125764         0.014240
 C         4.133755         1.417477         0.479541
 C         2.666020         0.781300         0.891307
 H        -0.415236         1.133120         0.666067
 H         0.320268         2.075586        -0.575229
 H        -0.471003         0.406199        -0.840328
 H         1.912440        -0.831682        -1.781026
 H         2.735331         0.760847        -1.726781
 H         2.846957        -2.475123        -0.015970
 H         2.994021        -1.950662         1.694288
 H         4.801074         1.799049         1.392037
 H         4.138130         2.099904        -0.439057
 H         2.516575         0.663641         1.942964
