19
Iteration:  2611charge 0 multiplicity 1
 C         0.185291         1.049876        -0.095000
 C         1.467789         0.367704        -0.120093
 C         2.535198        -0.118033        -1.130189
 C         3.361979        -0.425470         0.095051
 C         2.721593        -1.672570         0.678440
 O         1.276407        -1.179998         0.473079
 O         4.732591         0.067777         0.105165
 C         3.936918         1.475776         0.284603
 C         2.604468         0.778788         0.824070
 H        -0.339449         0.760529         0.831420
 H         0.203205         2.087263        -0.156639
 H        -0.553664         0.791975        -0.863114
 H         2.317980        -0.896256        -1.833447
 H         3.043529         0.671663        -1.679619
 H         2.809131        -2.545437         0.045842
 H         2.726195        -2.086899         1.667962
 H         4.547591         2.105826         1.120267
 H         4.075523         2.093168        -0.639373
 H         2.555158         0.845232         1.905872
