19
Iteration:   971charge 0 multiplicity 1
 C         0.194017         0.983819        -0.150600
 C         1.508137         0.221968        -0.047589
 C         2.506268        -0.069746        -1.264094
 C         3.375872        -0.378899         0.048248
 C         2.673504        -1.685131         0.587435
 O         1.280584        -1.145439         0.490046
 O         4.720834         0.267594         0.163788
 C         3.955052         1.436626         0.480690
 C         2.648899         0.674962         0.805700
 H        -0.095192         1.294855         0.831523
 H         0.311045         1.839622        -0.775239
 H        -0.570552         0.396507        -0.602938
 H         2.113814        -0.993247        -1.771972
 H         2.768313         0.739191        -1.927358
 H         2.749601        -2.498950        -0.166880
 H         2.839740        -2.152719         1.640683
 H         4.344502         1.861623         1.410474
 H         3.916462         2.364203        -0.368713
 H         2.549706         0.502437         1.848358
