19
Iteration:  4621
 C         0.089552         0.912209        -0.157343
 C         1.414214         0.265920        -0.101943
 C         2.433611        -0.026018        -1.202074
 C         3.329384        -0.413036         0.081988
 C         2.658117        -1.611091         0.542838
 O         1.291273        -1.085187         0.575532
 O         4.716145         0.098070         0.105268
 C         4.084365         1.412627         0.472570
 C         2.773539         0.769205         0.774845
 H        -0.191111         1.116915         0.890845
 H         0.185100         1.993576        -0.380520
 H        -0.536474         0.316939        -0.766243
 H         2.111598        -0.729781        -2.008194
 H         2.849667         0.884234        -1.623632
 H         2.779051        -2.479992        -0.073220
 H         3.012119        -1.912018         1.536263
 H         4.722223         1.861617         1.224585
 H         4.193837         2.010925        -0.390632
 H         2.647153         0.521633         1.863419
