19
Iteration:   956
 C         0.141182         0.962627        -0.210810
 C         1.512273         0.230769        -0.098069
 C         2.437316        -0.095729        -1.187563
 C         3.432525        -0.482290        -0.009457
 C         2.719868        -1.674264         0.519395
 O         1.283135        -1.039375         0.558851
 O         4.736988         0.242138         0.136297
 C         3.915095         1.486993         0.557324
 C         2.682416         0.618213         0.827229
 H        -0.454284         1.106133         0.701788
 H         0.339213         1.992082        -0.666732
 H        -0.564941         0.279007        -0.767086
 H         2.250833        -0.763385        -1.993211
 H         2.905839         0.822565        -1.643380
 H         2.595555        -2.584881        -0.006718
 H         3.032730        -1.744822         1.498670
 H         4.449346         2.044829         1.442833
 H         3.820520         2.072027        -0.361657
 H         2.506823         0.486320         1.993359
