19
Iteration:  3195
 C         0.275179         1.069112        -0.105955
 C         1.492384         0.255941        -0.117681
 C         2.495652        -0.139594        -1.267058
 C         3.359585        -0.384567         0.076686
 C         2.722341        -1.701377         0.698070
 O         1.260791        -1.105739         0.505736
 O         4.647652         0.195866        -0.022005
 C         3.959662         1.388125         0.455870
 C         2.620318         0.699936         0.851008
 H        -0.004262         1.295535         0.947968
 H         0.419987         1.995375        -0.606636
 H        -0.536628         0.516373        -0.526352
 H         2.244676        -1.100881        -1.815595
 H         2.996220         0.719470        -1.754483
 H         2.809040        -2.550724         0.040832
 H         2.873175        -1.810716         1.747012
 H         4.277557         1.920102         1.448663
 H         4.094645         2.248632        -0.181954
 H         2.473691         0.581359         1.955767
