19
Iteration:  2980charge 0 multiplicity 1
 C         0.146628         0.872908        -0.221007
 C         1.461140         0.246507        -0.096850
 C         2.488933         0.057911        -1.199623
 C         3.298122        -0.366416         0.083063
 C         2.634415        -1.576438         0.672930
 O         1.343192        -1.116810         0.550417
 O         4.637003         0.032901        -0.012045
 C         4.181470         1.355671         0.454527
 C         2.665605         0.827570         0.863487
 H        -0.423874         0.947262         0.779025
 H         0.277229         1.916644        -0.343483
 H        -0.697702         0.335602        -0.748107
 H         2.221865        -0.873144        -1.778956
 H         2.799230         0.925749        -1.759810
 H         2.710085        -2.485710         0.109747
 H         3.068564        -1.773942         1.683165
 H         4.711242         1.732325         1.320979
 H         4.124809         2.215053        -0.392280
 H         2.299328         0.894905         1.927678
