19
Iteration:  2000charge 0 multiplicity 1
 C         0.264910         1.035471        -0.126486
 C         1.500689         0.213050        -0.099626
 C         2.456537        -0.084862        -1.228464
 C         3.372662        -0.419391         0.047951
 C         2.677430        -1.747425         0.561020
 O         1.290049        -1.104712         0.523098
 O         4.649317         0.184706         0.149133
 C         3.930504         1.471778         0.478462
 C         2.670431         0.753529         0.819487
 H        -0.182144         1.455391         0.769685
 H         0.555565         1.794324        -0.921906
 H        -0.447864         0.327274        -0.558976
 H         2.406046        -0.966288        -1.880608
 H         2.815587         0.748518        -1.870468
 H         2.782740        -2.606690        -0.141758
 H         2.820693        -2.098316         1.579063
 H         4.399682         1.943309         1.294501
 H         3.938986         2.208677        -0.341439
 H         2.687095         0.757180         1.986562
