19
Iteration:  1264charge 0 multiplicity 1
 C         0.216929         0.935512        -0.153256
 C         1.535039         0.271356        -0.025588
 C         2.510688        -0.052777        -1.277097
 C         3.378699        -0.466663         0.005048
 C         2.665870        -1.697846         0.605277
 O         1.303920        -1.092608         0.470008
 O         4.654281         0.112548         0.192408
 C         3.946605         1.509090         0.418320
 C         2.618570         0.755204         0.862754
 H        -0.202837         0.753220         0.790543
 H         0.438208         1.993984        -0.159194
 H        -0.399434         0.699874        -0.970502
 H         2.188972        -0.821805        -1.950954
 H         2.743907         0.852962        -1.765400
 H         2.940898        -2.699750         0.125848
 H         3.027875        -1.882439         1.604919
 H         4.371786         2.232886         1.146392
 H         4.072664         2.117473        -0.470150
 H         2.304457         0.892196         1.920136
