19
Iteration:  3883charge 0 multiplicity 1
 C         0.225433         0.946313        -0.202603
 C         1.528617         0.321190        -0.071385
 C         2.433028        -0.053837        -1.235669
 C         3.333712        -0.393816         0.126021
 C         2.646390        -1.660305         0.583147
 O         1.358726        -1.034784         0.625253
 O         4.609840         0.097050         0.035489
 C         4.055666         1.392867         0.469262
 C         2.642360         0.744639         0.780930
 H        -0.239829         0.837872         0.797862
 H         0.152757         1.931034        -0.661004
 H        -0.360725         0.317430        -0.886719
 H         2.113578        -0.805920        -1.881113
 H         2.696407         0.832353        -1.794939
 H         2.694913        -2.412698        -0.131753
 H         2.878487        -2.057412         1.576433
 H         4.539252         1.448205         1.460147
 H         4.355460         2.191342        -0.178499
 H         2.577408         0.670066         1.828043
