19
Iteration:   520
 C         0.226857         0.931460        -0.152309
 C         1.530038         0.189239        -0.093224
 C         2.555249         0.039223        -1.253440
 C         3.352553        -0.411775         0.012232
 C         2.680237        -1.712082         0.609727
 O         1.283419        -1.174110         0.484014
 O         4.634153         0.193529         0.119484
 C         3.915014         1.469947         0.515086
 C         2.673344         0.769279         0.878781
 H        -0.370207         0.787271         0.848805
 H         0.309666         2.019503        -0.400004
 H        -0.425981         0.483913        -0.983736
 H         2.261667        -0.768752        -1.945920
 H         2.934077         0.946683        -1.677020
 H         2.882198        -2.641311         0.020002
 H         2.811207        -1.891044         1.687694
 H         4.631774         2.067325         1.195360
 H         3.914099         2.105453        -0.440449
 H         2.457342         0.782654         1.932234
