19
Iteration:  2701charge 0 multiplicity 1
 C         0.158595         0.915729        -0.219430
 C         1.483935         0.283652        -0.011516
 C         2.449648         0.037680        -1.147986
 C         3.373128        -0.369061         0.049415
 C         2.617511        -1.665041         0.601269
 O         1.280286        -1.127099         0.577571
 O         4.721541         0.089897         0.044931
 C         4.008342         1.368876         0.358438
 C         2.681688         0.801467         0.883591
 H        -0.099880         1.453452         0.678902
 H         0.391544         1.623874        -1.015635
 H        -0.541424         0.077733        -0.499469
 H         2.372713        -0.822241        -1.861622
 H         3.022499         0.817342        -1.574164
 H         2.707771        -2.562765        -0.037298
 H         2.902654        -2.035240         1.571078
 H         4.577913         1.945258         1.223290
 H         4.131840         2.145777        -0.484996
 H         2.514673         0.979356         1.971833
