19
Iteration:   291charge 0 multiplicity 1
 C         0.187397         0.867749        -0.194873
 C         1.497567         0.212998        -0.049542
 C         2.468067        -0.026661        -1.269773
 C         3.334871        -0.411156        -0.059679
 C         2.681408        -1.621391         0.520619
 O         1.296317        -1.073845         0.596804
 O         4.680951         0.193691         0.127571
 C         3.994646         1.458546         0.584193
 C         2.713225         0.670011         0.854164
 H        -0.197556         1.324194         0.767838
 H         0.281684         1.570135        -0.951007
 H        -0.498835         0.171537        -0.633836
 H         2.169026        -0.750917        -2.218543
 H         2.819910         1.017980        -1.711071
 H         2.537273        -2.511516        -0.113819
 H         3.147685        -1.777206         1.520647
 H         4.505883         1.967039         1.471138
 H         3.810832         2.311035        -0.109845
 H         2.550973         0.467132         1.866615
