19
Iteration:  2268charge 0 multiplicity 1
 C         0.156283         0.959761        -0.227368
 C         1.449367         0.250222        -0.082987
 C         2.496013         0.023230        -1.176637
 C         3.430873        -0.460168         0.086059
 C         2.658486        -1.685099         0.591938
 O         1.371440        -1.061558         0.654061
 O         4.666710         0.135882         0.070822
 C         3.987463         1.412224         0.429544
 C         2.617063         0.725071         0.766216
 H        -0.379230         0.927430         0.712193
 H         0.497180         2.021184        -0.271388
 H        -0.503570         0.810751        -1.173065
 H         2.551336        -0.785518        -1.915061
 H         2.924841         0.937137        -1.718817
 H         2.423701        -2.582640         0.044409
 H         2.973332        -2.048238         1.630367
 H         4.403162         1.942319         1.294143
 H         3.973251         1.925143        -0.506778
 H         2.269222         0.468977         1.764306
