19
Iteration:  4093
 C         0.192355         1.066869        -0.071963
 C         1.550523         0.240773        -0.106151
 C         2.427700        -0.121775        -1.180075
 C         3.362003        -0.438199         0.092166
 C         2.681455        -1.671375         0.646826
 O         1.289363        -1.089260         0.463447
 O         4.662124         0.086792         0.107377
 C         3.987959         1.464116         0.404663
 C         2.698481         0.769644         0.760476
 H        -0.259618         1.003526         0.912960
 H         0.342997         2.071833        -0.479503
 H        -0.645548         0.752633        -0.768388
 H         2.106485        -0.962532        -1.899948
 H         2.823137         0.759159        -1.780649
 H         2.947930        -2.706610         0.105983
 H         2.968062        -1.955450         1.754821
 H         4.521537         1.917595         1.277745
 H         4.035415         2.095408        -0.510168
 H         2.418135         0.849312         1.796120
