19
Iteration:  2444charge 0 multiplicity 1
 C         0.247369         1.074323        -0.145452
 C         1.479440         0.338458        -0.098932
 C         2.378255        -0.180387        -1.256899
 C         3.435531        -0.407872         0.136928
 C         2.663833        -1.732207         0.618186
 O         1.304226        -1.125271         0.512353
 O         4.677099         0.217283         0.189578
 C         3.951526         1.460653         0.371906
 C         2.686157         0.656436         0.772297
 H        -0.258067         0.880647         0.780021
 H         0.602448         2.137480        -0.146872
 H        -0.380024         0.744422        -0.926268
 H         1.982721        -1.098777        -1.762380
 H         2.772995         0.559941        -1.925889
 H         2.803678        -2.541644        -0.040445
 H         2.857892        -1.953713         1.700320
 H         4.376892         2.225462         1.144705
 H         4.134806         2.057401        -0.603847
 H         2.587040         0.513278         1.871025
