19
Iteration:  1060
 C         0.046022         0.853396        -0.304329
 C         1.440744         0.299279        -0.068483
 C         2.514578        -0.064099        -1.172832
 C         3.377186        -0.362643         0.028439
 C         2.637817        -1.640617         0.517634
 O         1.399840        -1.117541         0.623969
 O         4.688438         0.081605         0.060778
 C         4.049120         1.465925         0.556920
 C         2.683782         0.808207         0.880815
 H        -0.569195         0.790600         0.607307
 H         0.109920         1.856338        -0.462001
 H        -0.455842         0.529408        -1.161582
 H         2.082051        -0.788198        -1.920017
 H         2.899163         0.859664        -1.614756
 H         2.864611        -2.438138        -0.185429
 H         3.102015        -2.010144         1.476601
 H         4.510794         1.704479         1.450241
 H         4.043246         2.416029        -0.132024
 H         2.302462         0.847498         1.826586
