19
Iteration:  1420charge 0 multiplicity 1
 C         0.180138         1.030323        -0.116250
 C         1.479062         0.217647        -0.178398
 C         2.530023        -0.097838        -1.215595
 C         3.354594        -0.403984         0.081322
 C         2.704282        -1.737518         0.597693
 O         1.275958        -1.150061         0.546446
 O         4.701206         0.161225         0.161892
 C         3.970805         1.499383         0.465451
 C         2.653351         0.764655         0.792122
 H        -0.444448         1.008679         0.797839
 H         0.625192         1.979673        -0.357340
 H        -0.403540         0.851946        -1.035294
 H         2.295844        -0.667382        -2.163762
 H         2.702884         0.822654        -1.926289
 H         2.716540        -2.714862         0.062085
 H         2.955465        -2.136625         1.626839
 H         4.293991         2.054896         1.313811
 H         3.942653         2.146259        -0.481885
 H         2.502651         0.708737         1.815291
