19
Iteration:  1480charge 0 multiplicity 1
 C         0.129637         0.814376        -0.251086
 C         1.487009         0.311996        -0.100328
 C         2.528868         0.054516        -1.118551
 C         3.344640        -0.395741         0.065386
 C         2.619776        -1.648856         0.577984
 O         1.301217        -1.100811         0.538827
 O         4.690630         0.118763         0.093535
 C         4.044841         1.437709         0.476452
 C         2.687082         0.724147         0.820595
 H        -0.365648         1.184712         0.674349
 H         0.263321         1.808656        -0.876734
 H        -0.611789         0.189904        -0.793092
 H         2.217958        -0.665120        -1.856737
 H         2.864362         1.023676        -1.468893
 H         2.604010        -2.610132         0.059446
 H         3.013070        -1.796684         1.570050
 H         4.532492         1.860192         1.425546
 H         4.047289         2.074643        -0.364892
 H         2.751387         0.572784         1.962686
