19
Iteration:  3526
 C         0.110768         0.974195        -0.162862
 C         1.417965         0.254750        -0.059073
 C         2.489018        -0.065669        -1.209773
 C         3.363969        -0.402954         0.025226
 C         2.697324        -1.687590         0.610874
 O         1.286383        -1.070870         0.559021
 O         4.726750         0.071655         0.083410
 C         4.068496         1.492155         0.467963
 C         2.653415         0.755014         0.768425
 H        -0.156422         1.293566         0.886442
 H         0.171014         1.930127        -0.717243
 H        -0.633732         0.333865        -0.702350
 H         2.076607        -0.861272        -1.955820
 H         2.951716         0.872916        -1.594815
 H         2.642445        -2.626834         0.040704
 H         3.027721        -1.922550         1.598794
 H         4.530815         1.772149         1.401882
 H         4.334065         2.173649        -0.295457
 H         2.521681         0.690296         1.863305
