19
Iteration:   667
 C         0.140798         1.031503        -0.234726
 C         1.436196         0.238797        -0.076099
 C         2.463429        -0.066004        -1.267141
 C         3.367912        -0.407333         0.013601
 C         2.745201        -1.672991         0.544152
 O         1.406507        -1.129471         0.563307
 O         4.650959         0.177765         0.148097
 C         3.923379         1.466888         0.554077
 C         2.667075         0.632549         0.890411
 H        -0.232019         1.334929         0.786981
 H         0.226782         1.946150        -0.881522
 H        -0.537263         0.419249        -0.844828
 H         2.439807        -0.743806        -2.092100
 H         2.933060         0.850218        -1.792148
 H         2.895229        -2.514102        -0.113213
 H         2.905686        -1.928217         1.593828
 H         4.390273         1.995214         1.393500
 H         3.792179         2.214709        -0.356138
 H         2.627259         0.477225         1.932931
