19
Iteration:  4534
 C         0.240505         1.066372        -0.144125
 C         1.500799         0.241141        -0.034318
 C         2.391492        -0.131192        -1.260521
 C         3.355737        -0.353986         0.068702
 C         2.663809        -1.688110         0.556854
 O         1.355434        -1.108621         0.548775
 O         4.638640         0.144290         0.094032
 C         4.004192         1.502994         0.443232
 C         2.692072         0.684832         0.856767
 H        -0.356176         1.132790         0.831367
 H         0.417495         2.100877        -0.565114
 H        -0.424132         0.550075        -0.804705
 H         2.002568        -1.071464        -1.788135
 H         2.672107         0.678864        -1.890240
 H         2.707260        -2.625886        -0.119069
 H         2.954601        -2.036630         1.621986
 H         4.599177         1.842070         1.289403
 H         4.076979         2.041227        -0.550312
 H         2.550742         0.464636         1.948412
