19
Iteration:  4403
 C         0.158490         1.005382        -0.189166
 C         1.512903         0.317966        -0.032480
 C         2.424056        -0.078078        -1.223226
 C         3.339426        -0.479673         0.024660
 C         2.665608        -1.706229         0.629437
 O         1.317576        -1.046727         0.555198
 O         4.675664         0.135625         0.039625
 C         4.003291         1.446642         0.455392
 C         2.717122         0.729129         0.912169
 H        -0.427752         0.770123         0.701304
 H         0.259688         2.065801        -0.427286
 H        -0.353896         0.540528        -0.963478
 H         2.135063        -0.933325        -1.935901
 H         2.844465         0.703843        -1.868371
 H         2.707912        -2.564464        -0.032377
 H         3.022311        -1.789825         1.659831
 H         4.812727         1.958566         0.959645
 H         3.831697         2.124809        -0.442933
 H         2.711844         0.391211         2.010041
