19
Iteration:  3081charge 0 multiplicity 1
 C         0.118740         0.930647        -0.212214
 C         1.467317         0.320894        -0.002936
 C         2.390422        -0.058287        -1.206827
 C         3.358332        -0.383071         0.018281
 C         2.729558        -1.600881         0.675491
 O         1.266648        -1.107781         0.510545
 O         4.626448         0.102910         0.023666
 C         4.144195         1.395737         0.488680
 C         2.755039         0.703342         0.857397
 H        -0.586796         1.105363         0.564770
 H         0.333678         1.896564        -0.687226
 H        -0.418701         0.516455        -1.083851
 H         2.023567        -0.883312        -1.737603
 H         2.804937         0.795804        -1.784108
 H         2.706636        -2.533347         0.185517
 H         2.950391        -1.619932         1.721156
 H         4.763113         1.786282         1.314671
 H         4.298436         2.228362        -0.277055
 H         2.557891         0.590707         1.916760
