19
Iteration:  3054
 C         0.205848         1.056932        -0.156437
 C         1.495967         0.315546        -0.072508
 C         2.474584        -0.083228        -1.175122
 C         3.383629        -0.400089         0.131533
 C         2.665189        -1.741680         0.554692
 O         1.330944        -1.161236         0.595958
 O         4.677933         0.136974         0.052649
 C         3.945923         1.413353         0.390357
 C         2.662805         0.755122         0.788269
 H        -0.251425         1.439088         0.821078
 H         0.459747         2.004615        -0.713444
 H        -0.655114         0.671335        -0.723788
 H         2.232369        -1.038563        -1.759217
 H         2.914492         0.761857        -1.678505
 H         2.645532        -2.638026        -0.159514
 H         2.871753        -1.929954         1.634773
 H         4.437136         1.859693         1.246502
 H         4.077921         2.142517        -0.347593
 H         2.407940         0.827925         1.868752
