19
Iteration:  1621charge 0 multiplicity 1
 C         0.146226         0.891644        -0.219550
 C         1.408074         0.248195        -0.127491
 C         2.545150        -0.014449        -1.223909
 C         3.381259        -0.411228        -0.008315
 C         2.652869        -1.675509         0.610609
 O         1.284700        -1.040495         0.603536
 O         4.711334         0.184301         0.174098
 C         4.043038         1.414846         0.479771
 C         2.666803         0.714765         0.783578
 H        -0.459296         0.813066         0.688643
 H         0.173917         1.983045        -0.578250
 H        -0.491897         0.277517        -0.871508
 H         2.151510        -0.692609        -1.982956
 H         2.891829         1.041016        -1.652645
 H         2.545522        -2.537382        -0.068629
 H         3.045240        -2.103974         1.645173
 H         4.531161         1.779884         1.465372
 H         4.315945         2.035792        -0.380929
 H         2.527373         0.596248         1.855848
