19
Iteration:  4563
 C         0.109650         0.945705        -0.168547
 C         1.451179         0.270219        -0.015079
 C         2.486107         0.039119        -1.253116
 C         3.395373        -0.423208         0.038877
 C         2.615610        -1.696841         0.591925
 O         1.304584        -1.044759         0.633544
 O         4.783963         0.110588         0.043801
 C         4.025930         1.418411         0.412517
 C         2.669196         0.705798         0.857528
 H        -0.543460         0.580388         0.618286
 H         0.186116         1.946563        -0.525541
 H        -0.518614         0.552313        -1.010958
 H         2.207756        -0.667233        -2.031885
 H         2.810574         0.979103        -1.720876
 H         2.488191        -2.589078         0.055730
 H         2.989781        -1.794238         1.576242
 H         4.604084         1.765922         1.261906
 H         4.163346         1.991885        -0.442957
 H         2.451972         0.581093         1.913358
