19
Iteration:   760
 C         0.051637         0.820047        -0.226737
 C         1.448572         0.250139        -0.080989
 C         2.400897        -0.023577        -1.211674
 C         3.349478        -0.348589         0.026570
 C         2.722611        -1.663404         0.498903
 O         1.313018        -1.113483         0.485181
 O         4.667857         0.130115         0.227701
 C         4.145637         1.461714         0.539919
 C         2.716703         0.833633         0.809097
 H        -0.208351         0.673910         0.770455
 H        -0.001998         1.898852        -0.252026
 H        -0.652627         0.410567        -0.985655
 H         2.251948        -0.904193        -1.908611
 H         2.784109         0.765011        -1.853169
 H         2.969031        -2.586486        -0.113825
 H         3.041304        -1.904598         1.563952
 H         4.688565         1.841231         1.493690
 H         4.361835         2.257682        -0.231641
 H         2.332075         0.832481         1.945114
