19
Iteration:  1662
 C         0.073557         0.837422        -0.249431
 C         1.551363         0.325609        -0.006207
 C         2.458113        -0.038192        -1.182744
 C         3.359172        -0.364596         0.080203
 C         2.697736        -1.586501         0.568157
 O         1.273612        -1.056795         0.420299
 O         4.653477         0.100576         0.161377
 C         4.147834         1.361751         0.448773
 C         2.644465         0.787185         0.903009
 H        -0.183474         1.147191         0.730924
 H        -0.026717         1.692041        -0.912166
 H        -0.419145        -0.032240        -0.591562
 H         2.192644        -1.000613        -1.710405
 H         2.746734         0.817937        -1.792571
 H         2.766860        -2.472355        -0.128071
 H         3.015466        -1.749567         1.654959
 H         4.541507         1.913622         1.362501
 H         4.053787         2.108512        -0.471391
 H         2.579636         0.515791         1.906039
