19
Iteration:  1848
 C         0.206319         0.996439        -0.195025
 C         1.470283         0.284666        -0.037394
 C         2.528277         0.017970        -1.216788
 C         3.357371        -0.456921         0.026401
 C         2.706890        -1.693656         0.652691
 O         1.276047        -1.178709         0.505489
 O         4.681988         0.132788         0.082074
 C         3.971052         1.479377         0.460760
 C         2.631202         0.670632         0.860554
 H        -0.107555         1.476466         0.767568
 H         0.383049         1.946057        -0.895467
 H        -0.634813         0.442219        -0.698931
 H         2.309101        -0.670942        -2.002082
 H         3.069234         0.993654        -1.620665
 H         3.142446        -2.502232        -0.045275
 H         2.800320        -1.892132         1.733076
 H         4.389249         1.891873         1.403615
 H         3.855323         2.119724        -0.440598
 H         2.294762         0.847526         1.879395
