19
Iteration:  1877charge 0 multiplicity 1
 C         0.197520         1.025999        -0.181983
 C         1.499136         0.275004        -0.023740
 C         2.449447        -0.141749        -1.217725
 C         3.351789        -0.426756         0.015682
 C         2.661061        -1.651165         0.564322
 O         1.319596        -1.122918         0.456704
 O         4.653156         0.188688         0.157053
 C         3.986714         1.501961         0.475745
 C         2.726314         0.678793         0.867030
 H        -0.266523         1.214349         0.799265
 H         0.535150         2.018352        -0.533478
 H        -0.463717         0.468059        -0.915151
 H         2.128999        -1.122612        -1.638813
 H         2.839151         0.601641        -1.961979
 H         2.954821        -2.525697        -0.004610
 H         2.787386        -2.029602         1.592449
 H         4.402961         1.928654         1.348416
 H         3.919561         2.094737        -0.432417
 H         2.422758         0.665400         2.029211
