19
Iteration:   834charge 0 multiplicity 1
 C         0.130661         1.035659        -0.238215
 C         1.441127         0.233742        -0.106923
 C         2.489991        -0.072156        -1.098888
 C         3.396147        -0.394695         0.066775
 C         2.757898        -1.713417         0.517734
 O         1.312341        -1.223082         0.446401
 O         4.702149         0.204874         0.107109
 C         3.945938         1.510713         0.505454
 C         2.670129         0.758168         0.931572
 H        -0.087621         1.478416         0.852111
 H         0.279467         1.900090        -0.853957
 H        -0.685877         0.435458        -0.662669
 H         2.154245        -0.882303        -1.839012
 H         2.667173         0.677930        -1.802627
 H         2.733062        -2.648173        -0.025244
 H         3.020393        -1.945717         1.495301
 H         4.490545         1.864874         1.545053
 H         3.956087         2.119025        -0.484068
 H         2.548240         0.503622         2.082779
