19
Iteration:  1501
 C         0.108908         0.839968        -0.199025
 C         1.439972         0.243147        -0.083059
 C         2.490554        -0.027951        -1.263025
 C         3.342539        -0.348200         0.025180
 C         2.700312        -1.625187         0.558106
 O         1.290393        -1.077348         0.528871
 O         4.697225         0.075781         0.153882
 C         4.139342         1.430059         0.512661
 C         2.654004         0.812919         0.877404
 H        -0.433384         1.220871         0.677610
 H        -0.070662         1.715301        -0.921091
 H        -0.525292         0.067616        -0.666243
 H         2.298186        -0.874763        -1.961379
 H         2.821275         0.912578        -1.637597
 H         2.757315        -2.382891        -0.182732
 H         2.848673        -1.972910         1.551865
 H         4.549281         1.857621         1.477585
 H         4.201924         2.103735        -0.268778
 H         2.533736         0.988226         1.965582
