19
Iteration:  4903
 C         0.079620         0.944903        -0.225352
 C         1.513827         0.304460        -0.016037
 C         2.481458        -0.007067        -1.193651
 C         3.365363        -0.450124         0.035414
 C         2.715799        -1.661558         0.529023
 O         1.306459        -1.066633         0.638816
 O         4.588323         0.029186         0.025598
 C         4.104056         1.387257         0.431977
 C         2.727961         0.844775         0.883148
 H        -0.467969         0.821030         0.713168
 H         0.035169         2.024610        -0.263611
 H        -0.353389         0.496899        -0.987403
 H         2.073488        -0.787566        -1.767361
 H         2.958407         0.880995        -1.599106
 H         2.763873        -2.295698        -0.376713
 H         2.879612        -2.063585         1.529815
 H         4.640807         1.867135         1.297700
 H         4.063244         2.048226        -0.410939
 H         2.521434         0.761371         1.996375
