19
Iteration:  3884
 C         0.228942         0.949317        -0.204448
 C         1.538566         0.319696        -0.069819
 C         2.430668        -0.055228        -1.225713
 C         3.339138        -0.399240         0.130288
 C         2.646017        -1.650535         0.586059
 O         1.358796        -1.037538         0.621900
 O         4.613268         0.096986         0.034159
 C         4.052985         1.396125         0.467426
 C         2.642961         0.740615         0.774052
 H        -0.251469         0.849562         0.805862
 H         0.146036         1.981120        -0.638842
 H        -0.403810         0.302897        -0.896899
 H         2.098840        -0.815303        -1.889340
 H         2.684223         0.823889        -1.827830
 H         2.667083        -2.428410        -0.139701
 H         2.859372        -2.094527         1.557883
 H         4.503544         1.454417         1.469915
 H         4.300561         2.211205        -0.161978
 H         2.580122         0.668075         1.826710
