19
Iteration:  2041
 C         0.145829         0.989770        -0.219523
 C         1.513078         0.256996         0.001723
 C         2.538836        -0.007165        -1.218218
 C         3.394118        -0.412899         0.119044
 C         2.692939        -1.676991         0.564435
 O         1.299393        -1.129730         0.514613
 O         4.674479         0.125276         0.132127
 C         3.946736         1.423020         0.405593
 C         2.672452         0.736962         0.816198
 H        -0.362314         1.159055         0.715309
 H         0.302592         1.993099        -0.566458
 H        -0.651602         0.506783        -0.814166
 H         2.283859        -0.763229        -1.938171
 H         2.723822         1.020636        -1.722445
 H         2.609313        -2.634635         0.076932
 H         3.054416        -1.943443         1.589961
 H         4.579647         1.849143         1.356026
 H         3.836289         2.130626        -0.524768
 H         2.485335         0.542651         1.945568
