19
Iteration:   271charge 0 multiplicity 1
 C         0.149730         1.024930        -0.198644
 C         1.494395         0.286246        -0.000323
 C         2.443354         0.003146        -1.170970
 C         3.454195        -0.426691         0.058656
 C         2.710606        -1.721518         0.529454
 O         1.326988        -1.164900         0.474537
 O         4.701520         0.241159         0.152221
 C         3.924236         1.463637         0.446152
 C         2.666640         0.638306         0.857849
 H        -0.265122         1.316758         0.791240
 H         0.164105         1.907594        -0.808495
 H        -0.575601         0.291356        -0.576080
 H         2.007475        -0.876776        -1.788235
 H         2.855006         0.619899        -1.974339
 H         2.650302        -2.607939        -0.188051
 H         2.960692        -2.001561         1.615536
 H         4.414148         1.924700         1.221336
 H         3.830406         2.102476        -0.451535
 H         2.677555         0.399152         1.962967
