19
Iteration:  1096
 C         0.143968         0.912797        -0.229941
 C         1.491464         0.218580        -0.035814
 C         2.446042        -0.024533        -1.182978
 C         3.344798        -0.470430         0.041981
 C         2.624679        -1.603698         0.601814
 O         1.344148        -1.122732         0.486118
 O         4.716532         0.192685         0.131197
 C         4.003343         1.525315         0.462095
 C         2.712697         0.663891         0.857378
 H        -0.568248         0.708599         0.575300
 H         0.440225         1.977642        -0.354409
 H        -0.279593         0.423687        -1.126210
 H         2.024106        -0.732994        -1.880401
 H         2.806634         0.878489        -1.782741
 H         2.664152        -2.578758        -0.037909
 H         2.857356        -1.747832         1.722107
 H         4.629689         1.962036         1.354303
 H         3.880116         2.273362        -0.425659
 H         2.661465         0.561255         2.000893
