19
Iteration:  2729
 C         0.157359         1.078679        -0.090519
 C         1.468072         0.279562        -0.095869
 C         2.383402        -0.143940        -1.229663
 C         3.406271        -0.445863         0.018978
 C         2.726982        -1.669652         0.633904
 O         1.295914        -1.068392         0.476943
 O         4.664442         0.150060         0.217883
 C         3.970507         1.483892         0.356718
 C         2.751764         0.656445         0.783512
 H        -0.028667         1.274200         0.997842
 H         0.254366         1.966440        -0.715315
 H        -0.681778         0.489931        -0.514044
 H         2.233482        -1.058832        -1.805514
 H         2.953823         0.525018        -1.912329
 H         2.796305        -2.678739         0.182784
 H         2.960640        -1.892655         1.730731
 H         4.428003         2.055393         1.162153
 H         4.033694         2.015121        -0.530516
 H         2.598284         0.638694         1.857242
