19
Iteration:  3449charge 0 multiplicity 1
 C         0.151281         0.951916        -0.157784
 C         1.502457         0.337544        -0.064988
 C         2.498277        -0.083398        -1.171854
 C         3.328120        -0.426203         0.070552
 C         2.648145        -1.694413         0.592591
 O         1.264271        -1.120506         0.520632
 O         4.687822         0.103680         0.014598
 C         4.053223         1.491370         0.459889
 C         2.719501         0.762553         0.864410
 H        -0.486860         0.825052         0.791485
 H         0.262652         2.020745        -0.301364
 H        -0.400131         0.417290        -0.967637
 H         2.119525        -0.966882        -1.788621
 H         2.952555         0.747449        -1.801208
 H         2.769886        -2.611838         0.016190
 H         2.897337        -1.837249         1.612427
 H         4.634174         1.808205         1.310701
 H         3.996906         2.376879        -0.354790
 H         2.496579         0.923823         1.898231
