19
Iteration:  2811
 C         0.136700         0.804026        -0.287366
 C         1.498327         0.309050         0.031180
 C         2.426515        -0.010277        -1.173665
 C         3.302930        -0.384171         0.003362
 C         2.671626        -1.653261         0.579401
 O         1.292835        -1.012597         0.625834
 O         4.627844         0.071058         0.078382
 C         4.122377         1.418608         0.392321
 C         2.796280         0.788553         0.927753
 H        -0.700658         0.892480         0.372187
 H         0.207009         1.893133        -0.636944
 H        -0.270502         0.063876        -1.027988
 H         1.725422        -0.589734        -1.814094
 H         2.891128         0.874290        -1.737064
 H         2.696854        -2.459656        -0.188248
 H         2.962518        -1.858650         1.609822
 H         4.837365         1.897946         1.227092
 H         4.085890         2.069226        -0.633689
 H         2.665739         0.521967         1.989871
