19
Iteration:  2994
 C         0.097547         0.972552        -0.137098
 C         1.476512         0.328929        -0.090559
 C         2.431399        -0.100362        -1.164103
 C         3.294625        -0.406058         0.067135
 C         2.742522        -1.662898         0.615502
 O         1.305023        -1.125797         0.496593
 O         4.607733         0.077571         0.102593
 C         4.095162         1.422863         0.425434
 C         2.738882         0.828153         0.814292
 H        -0.224058         1.070366         0.879072
 H         0.226312         1.925592        -0.708020
 H        -0.516384         0.385220        -0.893460
 H         2.221691        -0.774421        -1.953780
 H         2.900996         0.819105        -1.648199
 H         2.955382        -2.629142         0.074383
 H         2.914243        -1.776619         1.729089
 H         4.738028         1.822119         1.311859
 H         4.249559         2.090336        -0.552945
 H         2.691487         0.747270         1.903587
