19
Iteration:  2924charge 0 multiplicity 1
 C         0.190032         0.943506        -0.195446
 C         1.523808         0.265129        -0.022885
 C         2.401860        -0.096497        -1.176668
 C         3.316942        -0.399946         0.091356
 C         2.687405        -1.634989         0.506271
 O         1.297788        -1.044119         0.636570
 O         4.711029         0.098023         0.083817
 C         4.040074         1.408278         0.422372
 C         2.712484         0.792470         0.822182
 H        -0.454665         0.961263         0.742425
 H         0.313300         1.968681        -0.559611
 H        -0.324976         0.416831        -1.011438
 H         2.119312        -0.950664        -1.846399
 H         2.579308         0.738988        -1.802483
 H         2.660784        -2.343683        -0.298841
 H         2.999821        -2.132888         1.403643
 H         4.497616         1.854159         1.266297
 H         3.878655         2.043940        -0.568069
 H         2.411481         0.755965         1.886221
