19
Iteration:  1627
 C         0.087877         0.905156        -0.240794
 C         1.503472         0.253369        -0.119250
 C         2.509691         0.000151        -1.201519
 C         3.376224        -0.442092         0.052568
 C         2.658092        -1.673843         0.607253
 O         1.294227        -1.047394         0.582981
 O         4.701742         0.184138         0.165744
 C         4.097604         1.393806         0.481426
 C         2.649393         0.747240         0.761968
 H        -0.434275         0.813426         0.733007
 H        -0.027664         1.870046        -0.614274
 H        -0.629579         0.264818        -0.793987
 H         2.275980        -0.631676        -2.114364
 H         2.724552         0.923335        -1.541971
 H         2.477181        -2.554541        -0.047719
 H         3.085622        -2.039641         1.508853
 H         4.406076         1.788345         1.419561
 H         4.385096         2.112827        -0.373905
 H         2.505438         0.572772         1.844202
