19
Iteration:  2718charge 0 multiplicity 1
 C         0.119271         1.059397        -0.132708
 C         1.487760         0.282374        -0.074308
 C         2.507775        -0.108406        -1.199659
 C         3.348566        -0.465172         0.056789
 C         2.691736        -1.676792         0.626973
 O         1.295202        -1.120090         0.508300
 O         4.691799         0.158615         0.160937
 C         4.045914         1.464047         0.360748
 C         2.699372         0.687754         0.804736
 H        -0.244399         1.497009         0.836360
 H         0.146447         1.927908        -0.823690
 H        -0.619610         0.337953        -0.471357
 H         1.995418        -0.849467        -1.791515
 H         2.630959         0.845616        -1.752849
 H         2.748402        -2.578494        -0.007929
 H         2.881354        -1.719612         1.744362
 H         4.603517         2.102755         1.026245
 H         3.845476         1.913203        -0.561470
 H         2.708202         0.493912         1.880442
