19
Iteration:  1488charge 0 multiplicity 1
 C         0.081597         0.835770        -0.268240
 C         1.496809         0.247067        -0.004014
 C         2.526008         0.045040        -1.162259
 C         3.360044        -0.388641         0.071455
 C         2.610296        -1.628429         0.551827
 O         1.298067        -1.091161         0.522242
 O         4.680590         0.069501         0.110274
 C         4.044779         1.484732         0.494673
 C         2.703178         0.817904         0.818815
 H        -0.245183         1.029927         0.739140
 H         0.337686         1.681631        -0.889838
 H        -0.609382         0.083672        -0.624355
 H         2.475415        -0.710497        -2.062132
 H         2.754799         0.930862        -1.645915
 H         2.671378        -2.566742         0.067137
 H         2.976972        -1.878837         1.568781
 H         4.728046         1.670470         1.316902
 H         4.134349         2.166828        -0.290113
 H         2.529799         0.490206         1.770668
