19
Iteration:  4066
 C         0.201127         1.060184        -0.046265
 C         1.552593         0.253403        -0.092143
 C         2.561313        -0.083667        -1.298786
 C         3.371356        -0.433128         0.019730
 C         2.597824        -1.705738         0.612470
 O         1.233069        -1.063021         0.576183
 O         4.677550         0.183213         0.160696
 C         3.953766         1.396835         0.333196
 C         2.690490         0.675423         0.784563
 H        -0.217245         0.996071         0.984874
 H         0.393378         2.088078        -0.372998
 H        -0.559488         0.826877        -0.756799
 H         2.208732        -1.008183        -1.615172
 H         3.216770         0.588492        -1.889544
 H         2.794165        -2.686359         0.083330
 H         2.947859        -1.784421         1.677088
 H         4.436897         1.999939         1.133697
 H         3.849024         2.021867        -0.579142
 H         2.503593         0.584076         1.886369
