19
Iteration:   979
 C         0.215240         1.015594        -0.108357
 C         1.525583         0.195500        -0.104780
 C         2.505140        -0.077659        -1.211793
 C         3.334595        -0.359271         0.073140
 C         2.637676        -1.720785         0.565161
 O         1.335715        -1.203034         0.455392
 O         4.674176         0.200214         0.150631
 C         3.976627         1.549041         0.486715
 C         2.630953         0.727881         0.804325
 H        -0.161484         1.371076         0.811641
 H         0.313558         1.885899        -0.831315
 H        -0.570811         0.309611        -0.444768
 H         2.255374        -0.977807        -1.730856
 H         2.839069         0.692367        -1.936573
 H         2.695147        -2.546737        -0.075195
 H         2.911131        -1.957945         1.539498
 H         4.479571         1.978084         1.425813
 H         3.955689         2.194259        -0.359915
 H         2.503882         0.640394         1.946815
