19
Iteration:  4734
 C         0.024320         0.886883        -0.142348
 C         1.478504         0.343339        -0.027204
 C         2.427279        -0.077073        -1.216222
 C         3.344091        -0.420749        -0.032597
 C         2.596565        -1.550016         0.584588
 O         1.310023        -1.058663         0.558830
 O         4.766983         0.065756         0.120236
 C         4.155135         1.409940         0.441268
 C         2.694656         0.749190         0.831590
 H        -0.457307         0.715006         0.763876
 H        -0.088914         1.941529        -0.248770
 H        -0.438501         0.386139        -1.036442
 H         2.209020        -0.803556        -1.994496
 H         2.719749         0.842805        -1.787251
 H         2.684863        -2.376213        -0.155714
 H         3.052766        -1.942853         1.498397
 H         4.704247         1.736663         1.249748
 H         4.253745         2.259160        -0.192849
 H         2.770462         0.539547         1.867769
