19
Iteration:  2239
 C         0.127396         0.826685        -0.264080
 C         1.505168         0.365844         0.038784
 C         2.349318        -0.049645        -1.174159
 C         3.402177        -0.404274         0.060296
 C         2.663940        -1.687044         0.565114
 O         1.250015        -1.066168         0.510902
 O         4.689288         0.093860         0.117449
 C         4.142003         1.467300         0.469826
 C         2.764037         0.847589         0.845904
 H        -0.542118         0.586305         0.593776
 H         0.051741         1.962124        -0.492597
 H        -0.259003         0.242908        -1.099034
 H         2.046523        -0.952086        -1.790954
 H         2.680648         0.610910        -1.897816
 H         2.520976        -2.552851        -0.172189
 H         2.917113        -1.988086         1.604030
 H         4.735098         2.082591         1.304687
 H         4.116569         2.070929        -0.437423
 H         2.546111         0.611313         1.934080
