19
Iteration:  2106charge 0 multiplicity 1
 C         0.070690         0.839308        -0.229110
 C         1.506469         0.286474        -0.056725
 C         2.472192        -0.040531        -1.281626
 C         3.312779        -0.378110         0.044826
 C         2.636059        -1.631267         0.606362
 O         1.340844        -1.056173         0.556959
 O         4.679643         0.121993         0.120584
 C         4.136323         1.394404         0.530463
 C         2.719240         0.789004         0.819734
 H        -0.458052         0.702364         0.694905
 H         0.118272         1.914590        -0.411805
 H        -0.450980         0.391481        -1.107247
 H         2.004637        -0.752038        -1.893132
 H         2.610091         0.957822        -1.790348
 H         2.827646        -2.452395        -0.094977
 H         2.959656        -1.991280         1.625844
 H         4.603167         1.896327         1.478500
 H         4.001340         2.021571        -0.352857
 H         2.504251         0.657479         1.900924
