19
Iteration:  4717charge 0 multiplicity 1
 C         0.088874         0.898725        -0.140754
 C         1.465857         0.324177        -0.074606
 C         2.456940         0.069269        -1.263238
 C         3.358728        -0.448861         0.005360
 C         2.706655        -1.707608         0.564866
 O         1.311001        -0.993611         0.604269
 O         4.656757         0.088613         0.119448
 C         4.079499         1.369274         0.465710
 C         2.766463         0.709347         0.787690
 H        -0.490890         0.854461         0.869774
 H         0.133930         2.017467        -0.366528
 H        -0.455915         0.358131        -0.904504
 H         2.020255        -0.755018        -1.897748
 H         2.946018         0.883330        -1.758783
 H         2.603319        -2.717923         0.123983
 H         3.024694        -1.774232         1.625131
 H         4.501711         2.049161         1.327411
 H         3.914540         1.926140        -0.519298
 H         2.534022         0.576907         1.876728
