19
Iteration:  3085
 C         0.109867         0.904513        -0.226345
 C         1.483228         0.312274         0.018168
 C         2.389408        -0.023296        -1.206204
 C         3.346446        -0.354539         0.032313
 C         2.684521        -1.583826         0.639503
 O         1.266956        -1.083982         0.532916
 O         4.636427         0.092602         0.025889
 C         4.139990         1.392869         0.483877
 C         2.774265         0.693441         0.825334
 H        -0.549294         0.984582         0.656091
 H         0.357954         1.902303        -0.677422
 H        -0.309868         0.435624        -1.079170
 H         2.139268        -0.925378        -1.887338
 H         2.794326         0.718389        -1.865970
 H         2.739114        -2.730388         0.359553
 H         2.975652        -1.539452         1.718013
 H         4.710927         1.691771         1.495632
 H         4.152192         2.192875        -0.269344
 H         2.687145         0.544595         1.903011
