19
Iteration:  2270charge 0 multiplicity 1
 C         0.175962         0.963677        -0.227123
 C         1.457519         0.240240        -0.074730
 C         2.495463         0.025733        -1.196699
 C         3.423519        -0.467354         0.087458
 C         2.668289        -1.693551         0.601636
 O         1.367221        -1.064047         0.646239
 O         4.673986         0.137970         0.076263
 C         3.968896         1.419666         0.427286
 C         2.607177         0.734793         0.746288
 H        -0.338335         0.939465         0.756786
 H         0.523931         2.092645        -0.258826
 H        -0.490145         0.814113        -1.148278
 H         2.489172        -0.813259        -1.954886
 H         2.860135         0.929226        -1.639778
 H         2.381179        -2.626707         0.074759
 H         2.985618        -2.065117         1.640419
 H         4.484187         1.946852         1.329556
 H         3.908727         1.927863        -0.424582
 H         2.265034         0.502121         1.792815
