19
Iteration:  3938charge 0 multiplicity 1
 C         0.281934         1.049805        -0.122576
 C         1.515533         0.270334        -0.079583
 C         2.419064        -0.057492        -1.162193
 C         3.328165        -0.457874         0.104490
 C         2.671875        -1.702585         0.572494
 O         1.328569        -1.129647         0.497387
 O         4.743729         0.073407         0.141842
 C         3.897835         1.437027         0.345206
 C         2.599505         0.795549         0.801234
 H        -0.248126         1.232577         0.805758
 H         0.612567         2.073230        -0.240965
 H        -0.458069         0.621047        -0.798215
 H         2.065448        -0.704986        -1.903286
 H         2.832268         0.837819        -1.609821
 H         2.721033        -2.658902         0.194585
 H         2.870876        -1.792839         1.642514
 H         4.515376         2.075950         1.033285
 H         4.037357         1.888932        -0.630409
 H         2.615222         0.811151         1.864846
