19
Iteration:  1193charge 0 multiplicity 1
 C         0.111124         0.863469        -0.289075
 C         1.495653         0.298418        -0.056981
 C         2.429968         0.059293        -1.184213
 C         3.404583        -0.398151         0.043927
 C         2.744050        -1.690391         0.584753
 O         1.240014        -1.063419         0.532557
 O         4.676275         0.143458         0.080310
 C         4.061867         1.409548         0.510497
 C         2.680362         0.710375         0.902048
 H        -0.353006         1.035735         0.702788
 H         0.107663         1.691350        -0.980487
 H        -0.270634        -0.003349        -0.824359
 H         2.140088        -0.735725        -1.877953
 H         2.972163         0.947912        -1.682233
 H         2.607582        -2.655657         0.166867
 H         3.145158        -1.890688         1.625245
 H         4.649109         1.852968         1.301400
 H         4.049574         2.232432        -0.254294
 H         2.446251         0.725320         1.981528
