19
Iteration:  3088
 C         0.117000         0.898062        -0.237969
 C         1.489463         0.299442         0.024139
 C         2.391149        -0.006729        -1.203701
 C         3.328189        -0.359721         0.027046
 C         2.642841        -1.582456         0.617734
 O         1.276786        -1.062290         0.553290
 O         4.661013         0.086743         0.026286
 C         4.140200         1.397032         0.495810
 C         2.774564         0.705368         0.808230
 H        -0.521739         0.883493         0.732463
 H         0.336693         1.910321        -0.600278
 H        -0.300312         0.259810        -1.127158
 H         2.218822        -0.880545        -1.926734
 H         2.793050         0.743299        -1.932805
 H         2.768533        -2.718603         0.465514
 H         2.988278        -1.516852         1.713822
 H         4.570228         1.582624         1.460860
 H         4.042141         2.142741        -0.263829
 H         2.783512         0.503368         1.922825
