19
Iteration:  4966
 C         0.216396         1.030742        -0.081686
 C         1.540485         0.269536        -0.041874
 C         2.495989        -0.032208        -1.206403
 C         3.355332        -0.435945         0.017606
 C         2.657270        -1.642394         0.601471
 O         1.324721        -1.119825         0.517249
 O         4.649214         0.121441         0.095787
 C         3.947531         1.391047         0.399186
 C         2.689721         0.703293         0.808333
 H         0.051300         1.311149         1.013706
 H         0.355792         2.025271        -0.609445
 H        -0.814957         0.610139        -0.529672
 H         2.044634        -0.805671        -1.860580
 H         2.787273         0.664232        -1.984402
 H         2.709682        -2.544237        -0.076780
 H         2.889088        -1.742876         1.675563
 H         4.537190         1.832465         1.213948
 H         3.921336         2.122665        -0.387846
 H         2.394073         0.596539         1.872029
