19
Iteration:  1200charge 0 multiplicity 1
 C         0.136283         0.793891        -0.306213
 C         1.531010         0.351360         0.001058
 C         2.473096         0.025744        -1.195948
 C         3.345875        -0.377845         0.060020
 C         2.699473        -1.619958         0.592998
 O         1.279343        -1.111776         0.555528
 O         4.650643         0.155068         0.054098
 C         4.101804         1.398720         0.498210
 C         2.648776         0.706579         0.880619
 H        -0.335241         1.084018         0.739658
 H         0.254904         1.787209        -0.835770
 H        -0.510004         0.094547        -0.983285
 H         2.086622        -0.687896        -1.965576
 H         2.986607         0.996071        -1.539620
 H         2.672897        -2.513229        -0.103835
 H         2.826135        -1.955733         1.628806
 H         4.537617         1.809351         1.416443
 H         4.189479         2.148635        -0.299147
 H         2.463726         0.711666         1.916483
