19
Iteration:  2806charge 0 multiplicity 1
 C         0.171897         0.792451        -0.311400
 C         1.497210         0.356945         0.029426
 C         2.403548        -0.013340        -1.171870
 C         3.274894        -0.373118         0.027396
 C         2.662267        -1.659618         0.601560
 O         1.291924        -1.015612         0.596886
 O         4.640292         0.072004         0.076516
 C         4.138541         1.451241         0.375129
 C         2.790022         0.742667         0.952697
 H        -0.541473         0.768204         0.576308
 H         0.192952         1.776684        -0.703588
 H        -0.248389         0.188313        -1.145488
 H         1.679602        -0.557312        -1.791872
 H         2.734800         0.788626        -1.771677
 H         2.671270        -2.453476        -0.147365
 H         3.079715        -1.832402         1.627389
 H         4.787049         1.858535         1.083263
 H         3.977430         2.015198        -0.455185
 H         2.779823         0.491021         2.021374
