19
Iteration:  1993charge 0 multiplicity 1
 C         0.243629         0.997959        -0.150965
 C         1.501558         0.208430        -0.068753
 C         2.531265        -0.060054        -1.245940
 C         3.308962        -0.419281         0.027163
 C         2.634014        -1.682268         0.576850
 O         1.336564        -1.105384         0.554064
 O         4.701660         0.170255         0.108102
 C         3.962334         1.465310         0.481088
 C         2.612999         0.714529         0.839682
 H        -0.151902         1.456685         0.815379
 H         0.404210         1.864924        -0.833803
 H        -0.637030         0.481070        -0.580126
 H         2.292434        -0.919123        -1.946722
 H         2.937596         0.781199        -1.710090
 H         2.810245        -2.530559        -0.125213
 H         2.827594        -2.116759         1.571590
 H         4.298737         2.003406         1.395052
 H         4.021922         2.041021        -0.415897
 H         2.337625         0.712084         1.823420
