19
Iteration:  4394
 C         0.187797         1.021221        -0.176900
 C         1.547848         0.364051        -0.039611
 C         2.373744        -0.119385        -1.174225
 C         3.368300        -0.422060         0.021765
 C         2.666625        -1.707911         0.581037
 O         1.330612        -1.080736         0.530787
 O         4.669159         0.190401         0.065672
 C         4.026374         1.404097         0.391745
 C         2.716859         0.658038         0.902929
 H        -0.346639         0.920951         0.772713
 H         0.274123         2.102415        -0.356034
 H        -0.442876         0.647427        -0.953133
 H         2.148013        -1.061833        -1.726570
 H         2.775452         0.672239        -1.715106
 H         2.707644        -2.681276         0.202574
 H         2.860815        -1.879481         1.605252
 H         4.592534         1.904928         1.160942
 H         3.767435         1.948116        -0.445037
 H         2.309666         0.806096         1.923598
