19
Iteration:  4022
 C         0.123447         0.963976        -0.242552
 C         1.453530         0.354239         0.013653
 C         2.505753        -0.038078        -1.208112
 C         3.345144        -0.408544         0.026193
 C         2.739955        -1.628844         0.569273
 O         1.275697        -1.104588         0.610177
 O         4.614834         0.040341         0.063340
 C         4.095109         1.402031         0.444029
 C         2.711523         0.788722         0.882634
 H        -0.475782         1.090902         0.697812
 H         0.197416         1.829463        -0.931214
 H        -0.415405         0.347937        -0.927052
 H         2.260704        -0.929367        -1.756929
 H         2.560747         0.921610        -1.822199
 H         2.584608        -2.603703        -0.083740
 H         3.106672        -1.989548         1.583169
 H         4.766949         1.792419         1.238051
 H         4.136326         2.022673        -0.491118
 H         2.622244         0.852116         1.996923
