19
Iteration:  2618
 C         0.150150         1.013176        -0.127901
 C         1.544722         0.329366        -0.108544
 C         2.519135        -0.085017        -1.200480
 C         3.382816        -0.364688         0.116078
 C         2.702516        -1.690898         0.660187
 O         1.284794        -1.163033         0.520692
 O         4.660951         0.052322         0.094435
 C         4.009783         1.477666         0.338799
 C         2.581307         0.784984         0.802051
 H        -0.259357         0.706326         0.851764
 H         0.184951         2.205904        -0.187098
 H        -0.646311         0.838559        -0.848724
 H         2.412973        -0.958794        -1.849688
 H         2.903817         0.799787        -1.832449
 H         2.769530        -2.669731         0.065625
 H         2.973627        -1.864206         1.799575
 H         4.559670         1.832593         1.182246
 H         4.028320         1.994373        -0.609936
 H         2.542168         0.816789         1.917937
