19
Iteration:  4529charge 0 multiplicity 1
 C         0.226716         1.073677        -0.113974
 C         1.526742         0.192494        -0.087782
 C         2.375839        -0.136143        -1.257339
 C         3.358792        -0.325996         0.079423
 C         2.666169        -1.682227         0.543372
 O         1.350918        -1.123754         0.529606
 O         4.670939         0.133709         0.087425
 C         3.982739         1.465677         0.430562
 C         2.674087         0.723048         0.912712
 H        -0.285781         1.410701         0.797080
 H         0.473384         2.058061        -0.468560
 H        -0.407593         0.488154        -0.850489
 H         1.927405        -1.002231        -1.660711
 H         2.839315         0.581957        -1.999766
 H         2.578213        -2.603532         0.027153
 H         3.063994        -1.989160         1.477529
 H         4.584655         1.867730         1.253786
 H         3.927286         2.121522        -0.414658
 H         2.505864         0.688810         1.978507
