19
Iteration:  1690
 C         0.111646         0.990226        -0.255300
 C         1.495814         0.251728        -0.042648
 C         2.519709         0.016262        -1.270776
 C         3.413416        -0.447810         0.069875
 C         2.660107        -1.721467         0.631066
 O         1.289023        -1.111795         0.566289
 O         4.697836         0.145488         0.147640
 C         4.018890         1.482793         0.451692
 C         2.645768         0.718661         0.788554
 H        -0.226260         1.275524         0.813012
 H         0.318198         1.938745        -0.770297
 H        -0.699351         0.235102        -0.671511
 H         2.274461        -0.732413        -2.048249
 H         2.917798         0.992034        -1.599863
 H         2.632598        -2.606356        -0.046635
 H         3.110137        -2.078138         1.592192
 H         4.201320         1.968187         1.379949
 H         4.025123         2.083245        -0.375582
 H         2.561608         0.409239         1.931601
