19
Iteration:  4577
 C         0.085121         0.826129        -0.201535
 C         1.516559         0.314528        -0.064057
 C         2.452285         0.040445        -1.186547
 C         3.337569        -0.374929         0.052189
 C         2.635822        -1.601994         0.614382
 O         1.313148        -1.035130         0.570138
 O         4.645711         0.033030         0.037592
 C         4.137108         1.415204         0.442096
 C         2.737282         0.745372         0.844380
 H        -0.474070         0.743354         0.768701
 H         0.090214         1.952002        -0.179059
 H        -0.307273         0.330955        -1.043123
 H         2.303184        -0.843205        -1.880686
 H         2.743640         0.950618        -1.625383
 H         2.761059        -2.395091        -0.122759
 H         2.807820        -2.089571         1.594525
 H         4.640185         1.869878         1.283758
 H         3.874943         2.042269        -0.386174
 H         2.686704         0.605991         1.949987
