19
Iteration:  3857charge 0 multiplicity 1
 C        -0.020818         0.877746        -0.269728
 C         1.429170         0.311724         0.003173
 C         2.454522         0.044783        -1.189833
 C         3.409745        -0.409074        -0.001375
 C         2.654844        -1.564680         0.618154
 O         1.308157        -1.055871         0.577096
 O         4.734860         0.015184         0.097320
 C         4.154925         1.367105         0.490422
 C         2.744762         0.765327         0.790149
 H        -0.348168         0.987343         0.732622
 H        -0.093444         1.758747        -0.868052
 H        -0.717167         0.276717        -0.789221
 H         2.065257        -0.742166        -1.916042
 H         2.602556         1.024536        -1.674248
 H         2.484095        -2.481077        -0.028254
 H         3.013049        -1.790221         1.652408
 H         4.830093         1.612809         1.311840
 H         4.087345         2.205452        -0.319117
 H         2.755772         0.591822         1.913636
