19
Iteration:  3285charge 0 multiplicity 1
 C         0.059409         0.889543        -0.182515
 C         1.479411         0.401415        -0.099178
 C         2.393285        -0.087798        -1.147533
 C         3.369378        -0.397677         0.148131
 C         2.632713        -1.595559         0.539057
 O         1.302062        -1.108764         0.527283
 O         4.743276         0.084799         0.050708
 C         4.116648         1.423592         0.456267
 C         2.729542         0.754995         0.835350
 H        -0.454296         0.726615         0.758581
 H         0.059215         1.903958        -0.337528
 H        -0.513415         0.250053        -0.804637
 H         2.100293        -0.961219        -1.734640
 H         3.010555         0.701201        -1.679089
 H         2.745746        -2.424390        -0.146250
 H         2.873144        -1.834593         1.546918
 H         4.627710         1.980019         1.213224
 H         4.225995         2.033492        -0.471028
 H         2.524866         0.856059         1.906329
