19
Iteration:   743charge 0 multiplicity 1
 C         0.094489         0.824387        -0.137111
 C         1.516275         0.317667        -0.108256
 C         2.472202         0.021690        -1.271154
 C         3.352796        -0.359175         0.069001
 C         2.653107        -1.603748         0.603683
 O         1.351607        -1.129647         0.473904
 O         4.706572         0.084173         0.184154
 C         4.034860         1.477999         0.524249
 C         2.658103         0.744067         0.802824
 H        -0.709779         0.448760         0.614356
 H         0.064285         1.967882        -0.234716
 H        -0.254233         0.351249        -1.086874
 H         2.050408        -0.641749        -2.007074
 H         2.815213         0.926105        -1.879829
 H         2.819002        -2.484944         0.000378
 H         3.109080        -1.832013         1.592112
 H         4.453216         1.889949         1.393460
 H         4.031484         2.035760        -0.392310
 H         2.600051         0.502000         1.771987
