19
Iteration:  2671charge 0 multiplicity 1
 C         0.014137         0.827048        -0.317012
 C         1.480596         0.373188        -0.060221
 C         2.386298        -0.050933        -1.190316
 C         3.328182        -0.375770        -0.017048
 C         2.622676        -1.649327         0.584590
 O         1.349977        -1.028825         0.691637
 O         4.707513         0.140506         0.026718
 C         4.185295         1.363699         0.520173
 C         2.732887         0.771304         0.906537
 H        -0.523617         1.223591         0.557805
 H         0.163631         1.724339        -1.054891
 H        -0.455285        -0.069562        -0.776748
 H         2.137126        -0.897499        -1.857925
 H         3.054822         0.701586        -1.701926
 H         2.557331        -2.372824        -0.232746
 H         2.916807        -1.991787         1.571785
 H         4.757091         1.694645         1.312841
 H         4.095339         2.023991        -0.342787
 H         2.664867         0.582336         2.012623
