19
Iteration:  3194charge 0 multiplicity 1
 C         0.269500         1.074075        -0.100319
 C         1.493129         0.257731        -0.119549
 C         2.506391        -0.133570        -1.265974
 C         3.354953        -0.391280         0.067695
 C         2.722068        -1.700077         0.692624
 O         1.258976        -1.112162         0.509537
 O         4.651552         0.196263        -0.019946
 C         3.952756         1.387090         0.451880
 C         2.623029         0.695890         0.854253
 H        -0.036167         1.312255         0.928769
 H         0.448823         2.010733        -0.607649
 H        -0.506995         0.504110        -0.501473
 H         2.245106        -1.075435        -1.805644
 H         3.016816         0.679106        -1.729390
 H         2.820783        -2.550889         0.084540
 H         2.871167        -1.765495         1.726176
 H         4.271229         1.926274         1.440846
 H         4.075845         2.235920        -0.195849
 H         2.447664         0.606411         1.944992
