19
Iteration:   602
 C         0.039896         0.821144        -0.168080
 C         1.500149         0.332304        -0.087026
 C         2.484994         0.041835        -1.207264
 C         3.363107        -0.373617         0.016337
 C         2.707896        -1.684472         0.515569
 O         1.325528        -1.108244         0.495584
 O         4.753697         0.076186         0.198931
 C         4.018709         1.487833         0.474936
 C         2.594426         0.782416         0.887377
 H        -0.532688         0.954250         0.739560
 H         0.051008         1.746069        -0.732132
 H        -0.466039         0.088397        -0.780784
 H         2.372635        -0.793497        -1.864230
 H         2.971621         0.880025        -1.813754
 H         2.754357        -2.588891        -0.099539
 H         3.061221        -1.955323         1.507915
 H         4.576023         1.830031         1.333469
 H         4.278739         2.131150        -0.498684
 H         2.443550         0.841873         2.013310
