19
Iteration:  4328charge 0 multiplicity 1
 C         0.114471         0.947664        -0.118670
 C         1.488099         0.385715        -0.039030
 C         2.424673        -0.091891        -1.256431
 C         3.334979        -0.482497         0.031251
 C         2.671146        -1.665916         0.573146
 O         1.330528        -1.050199         0.545912
 O         4.702101         0.058052         0.089163
 C         4.064673         1.498568         0.461811
 C         2.768661         0.762490         0.826523
 H        -0.486651         1.083894         0.814273
 H         0.065326         1.681475        -0.975603
 H        -0.409400         0.105589        -0.594669
 H         1.969035        -0.897846        -1.926820
 H         2.632467         0.854831        -1.793530
 H         2.657068        -2.694072         0.122785
 H         2.959014        -1.971758         1.622833
 H         4.389878         1.977139         1.382942
 H         4.088323         2.102643        -0.401359
 H         2.507940         0.893888         1.940732
