19
Iteration:  3463
 C         0.216607         1.034262        -0.163781
 C         1.514383         0.254983        -0.019745
 C         2.509631        -0.041004        -1.185784
 C         3.376498        -0.432543         0.119465
 C         2.569414        -1.723027         0.636764
 O         1.267300        -1.142645         0.539730
 O         4.723872         0.244787         0.007228
 C         4.045752         1.439534         0.360560
 C         2.607618         0.681633         0.895358
 H        -0.297407         0.948453         0.765704
 H         0.479749         2.026568        -0.544865
 H        -0.527539         0.648859        -0.902009
 H         2.321964        -0.849063        -1.974914
 H         3.051953         0.734351        -1.727011
 H         2.572373        -2.524599        -0.089556
 H         2.758980        -2.073168         1.645556
 H         4.609190         1.980487         1.160037
 H         3.870307         2.118466        -0.672014
 H         2.510798         0.300518         1.972263
