19
Iteration:   330charge 0 multiplicity 1
 C         0.011552         0.825030        -0.197472
 C         1.465691         0.355802        -0.020380
 C         2.478930        -0.036650        -1.220626
 C         3.378046        -0.365710         0.034221
 C         2.724651        -1.610522         0.545870
 O         1.299921        -1.184088         0.471887
 O         4.648364         0.128394         0.079787
 C         4.112969         1.429729         0.568259
 C         2.697600         0.859253         0.851923
 H        -0.605531         0.865001         0.716828
 H         0.052432         1.867471        -0.731243
 H        -0.474110         0.056202        -0.861598
 H         2.082704        -0.829531        -1.698946
 H         3.131243         0.673967        -1.628222
 H         2.834990        -2.549426        -0.083569
 H         3.120191        -1.896357         1.542778
 H         4.823756         1.677233         1.420430
 H         4.285255         2.232341        -0.152562
 H         2.428265         0.822654         2.000154
