19
Iteration:   673
 C         0.143682         1.042975        -0.259756
 C         1.473777         0.199292        -0.016609
 C         2.482334        -0.057222        -1.266412
 C         3.330254        -0.409355         0.050314
 C         2.775161        -1.699043         0.496383
 O         1.405635        -1.123594         0.554172
 O         4.658900         0.175902         0.137399
 C         3.920151         1.535262         0.565901
 C         2.658811         0.656311         0.850723
 H        -0.350974         1.279888         0.672233
 H         0.490015         2.017630        -0.709476
 H        -0.682181         0.475924        -0.780729
 H         2.165550        -0.936611        -1.959826
 H         2.892676         0.740112        -1.831966
 H         2.735954        -2.690201        -0.053494
 H         2.863496        -1.961301         1.577262
 H         4.462188         1.994689         1.397399
 H         3.815180         2.110367        -0.284435
 H         2.458064         0.423375         1.959619
