19
Iteration:   915
 C         0.114827         0.837809        -0.269970
 C         1.407975         0.281912         0.001666
 C         2.459176        -0.006032        -1.080620
 C         3.343718        -0.360260         0.094090
 C         2.717893        -1.676655         0.524485
 O         1.331209        -1.128480         0.476463
 O         4.707151         0.079859         0.080203
 C         4.104256         1.462919         0.501066
 C         2.659013         0.848078         0.836313
 H        -0.485175         0.487105         0.472275
 H         0.069171         1.946355        -0.372449
 H        -0.267737         0.323097        -1.166368
 H         2.122057        -0.720713        -1.805196
 H         2.723942         0.988450        -1.575072
 H         2.790824        -2.521950        -0.174646
 H         3.016809        -1.964572         1.579068
 H         4.661665         1.879409         1.421982
 H         4.121981         2.291802        -0.361255
 H         2.241577         0.922414         1.887455
