19
Iteration:  2079charge 0 multiplicity 1
 C        -0.027954         0.850538        -0.226821
 C         1.489632         0.315516        -0.053418
 C         2.517513        -0.065546        -1.253247
 C         3.398807        -0.411372        -0.010324
 C         2.674518        -1.613842         0.599386
 O         1.297768        -1.021119         0.528117
 O         4.724700         0.082136         0.128958
 C         4.132195         1.447742         0.533897
 C         2.700745         0.755100         0.846752
 H        -0.438226         0.526885         0.781543
 H        -0.199219         1.959467        -0.308915
 H        -0.546480         0.362239        -1.062703
 H         1.884059        -0.857126        -1.756389
 H         2.578859         0.759063        -1.889099
 H         2.806828        -2.433979        -0.138129
 H         2.959136        -1.893916         1.604245
 H         4.398408         1.721932         1.455381
 H         4.357217         2.163027        -0.229929
 H         2.510206         0.889898         1.891289
