19
Iteration:   605
 C         0.033009         0.827103        -0.187209
 C         1.471914         0.347965        -0.091835
 C         2.493598         0.039479        -1.187705
 C         3.371772        -0.363685         0.019657
 C         2.710015        -1.680051         0.504195
 O         1.307822        -1.106803         0.479973
 O         4.749596         0.087411         0.190072
 C         4.066500         1.478708         0.473907
 C         2.585692         0.772218         0.881340
 H        -0.499434         0.896817         0.773660
 H        -0.010716         1.707011        -0.703945
 H        -0.496325         0.001403        -0.596475
 H         2.313321        -0.861668        -1.722708
 H         3.058285         0.760334        -1.763449
 H         2.922273        -2.621333        -0.122810
 H         3.016884        -1.929199         1.527474
 H         4.618309         1.902679         1.357650
 H         4.185855         2.036060        -0.405151
 H         2.470213         0.870576         2.081665
