19
Iteration:  1596charge 0 multiplicity 1
 C         0.232655         1.032908        -0.257666
 C         1.505154         0.281582        -0.071790
 C         2.455073        -0.140547        -1.188308
 C         3.370122        -0.396902         0.070911
 C         2.694019        -1.648280         0.586469
 O         1.339700        -1.106049         0.489182
 O         4.652721         0.158954         0.131167
 C         3.928974         1.457533         0.480229
 C         2.677990         0.706871         0.911276
 H        -0.389305         0.841059         0.609381
 H         0.257166         2.069500        -0.389460
 H        -0.330203         0.554354        -1.062954
 H         2.050261        -1.013905        -1.818650
 H         2.598951         0.724843        -1.735155
 H         2.628384        -2.559451        -0.104982
 H         3.181418        -1.962983         1.589111
 H         4.446244         1.980781         1.310068
 H         4.034210         2.009855        -0.530162
 H         2.566433         0.503117         1.932270
