19
Iteration:  2695
 C         0.181453         0.867681        -0.239749
 C         1.497340         0.255384        -0.050828
 C         2.452051         0.055340        -1.096132
 C         3.337996        -0.386611         0.086156
 C         2.664620        -1.692776         0.570581
 O         1.285547        -1.062031         0.600819
 O         4.662156         0.055582         0.009808
 C         4.036255         1.432620         0.402328
 C         2.706751         0.782412         0.864259
 H        -0.252991         1.437491         0.619219
 H         0.284277         1.616096        -1.119788
 H        -0.400839         0.009180        -0.506289
 H         2.262072        -0.793545        -1.724056
 H         2.883296         1.002244        -1.607775
 H         2.668860        -2.476562        -0.210585
 H         2.840722        -1.922075         1.664309
 H         4.512328         1.709343         1.282413
 H         4.157541         2.094896        -0.400578
 H         2.649449         1.163371         1.891452
