19
Iteration:  3371
 C         0.196546         0.957362        -0.220403
 C         1.557251         0.362684        -0.004722
 C         2.448720        -0.030595        -1.165358
 C         3.387814        -0.420588         0.102583
 C         2.641373        -1.727111         0.558378
 O         1.308420        -1.117792         0.522416
 O         4.661406         0.085968         0.046886
 C         3.971271         1.444663         0.439936
 C         2.714017         0.834500         0.912707
 H        -0.238946         1.040413         0.859898
 H         0.102450         1.882562        -0.841306
 H        -0.495426         0.184300        -0.640072
 H         2.047257        -0.878326        -1.751419
 H         2.779692         0.699056        -2.001522
 H         2.738909        -2.467529        -0.239199
 H         2.765745        -2.229326         1.512257
 H         4.603919         2.029393         1.204597
 H         3.857344         1.958478        -0.581082
 H         2.609677         0.750794         1.991312
