19
Iteration:  3816
 C         0.170729         0.986969        -0.151197
 C         1.545720         0.310884        -0.114069
 C         2.515153        -0.040891        -1.143565
 C         3.356587        -0.405003         0.069332
 C         2.583736        -1.674511         0.538133
 O         1.344294        -1.089731         0.562983
 O         4.638783         0.078678         0.099749
 C         4.017702         1.417858         0.368491
 C         2.686866         0.772123         0.871938
 H        -0.111058         1.114738         0.950763
 H         0.034970         1.925881        -0.753659
 H        -0.625859         0.258045        -0.557642
 H         2.320729        -0.909648        -1.746651
 H         2.728188         0.801073        -1.752437
 H         2.766233        -2.426491        -0.179806
 H         2.750634        -2.064980         1.554036
 H         4.425206         1.915831         1.308703
 H         4.159178         2.023111        -0.550194
 H         2.594657         0.639896         1.950563
