19
Iteration:  4514
 C         0.224374         1.056022        -0.126068
 C         1.472235         0.309504        -0.002305
 C         2.459920        -0.120964        -1.164587
 C         3.372985        -0.498255         0.013197
 C         2.731154        -1.677808         0.570308
 O         1.286342        -1.136667         0.497736
 O         4.698207         0.166357         0.061684
 C         3.950294         1.396190         0.442680
 C         2.631075         0.793209         0.847349
 H         0.007389         1.274997         0.911784
 H         0.564705         1.946266        -0.705327
 H        -0.687792         0.737244        -0.565448
 H         2.178372        -1.019021        -1.784731
 H         2.796561         0.691163        -1.819735
 H         2.941897        -2.535342        -0.155033
 H         2.904913        -1.924105         1.652380
 H         4.496820         1.943838         1.248248
 H         3.821965         2.030296        -0.541630
 H         2.405252         0.790559         1.936818
