19
Iteration:  4535charge 0 multiplicity 1
 C         0.241843         1.064436        -0.147896
 C         1.494042         0.255295        -0.022261
 C         2.394132        -0.132136        -1.256549
 C         3.355278        -0.369306         0.063696
 C         2.666635        -1.689536         0.560394
 O         1.353369        -1.105605         0.553132
 O         4.633812         0.147334         0.095207
 C         4.008595         1.505498         0.445787
 C         2.694591         0.680323         0.844651
 H        -0.342922         1.067441         0.813091
 H         0.412259         2.088899        -0.581544
 H        -0.446640         0.563003        -0.809151
 H         2.035675        -1.062666        -1.810598
 H         2.645918         0.721173        -1.888271
 H         2.738985        -2.612499        -0.152145
 H         2.924628        -2.030464         1.639353
 H         4.603039         1.860614         1.302645
 H         4.096891         2.044532        -0.570758
 H         2.564620         0.429432         1.928491
