19
Iteration:  3889charge 0 multiplicity 1
 C         0.211117         0.963194        -0.216929
 C         1.563618         0.308445        -0.072917
 C         2.421045        -0.065176        -1.179421
 C         3.369483        -0.438043         0.116958
 C         2.642447        -1.618824         0.595144
 O         1.343754        -1.049276         0.602657
 O         4.647486         0.099840         0.028351
 C         4.037479         1.402405         0.474848
 C         2.673519         0.740829         0.761324
 H        -0.292629         0.972812         0.752959
 H         0.198399         2.053203        -0.444031
 H        -0.486586         0.364060        -0.828861
 H         2.020277        -0.898546        -1.882111
 H         2.709013         0.744450        -1.897155
 H         2.562595        -2.502329        -0.191104
 H         2.820354        -2.215688         1.524808
 H         4.354187         1.625079         1.502803
 H         4.031638         2.364115        -0.176068
 H         2.492998         0.681173         1.890016
