19
Iteration:  2317
 C         0.094865         1.045569        -0.149014
 C         1.461119         0.254683        -0.104678
 C         2.438914        -0.133080        -1.204493
 C         3.408987        -0.460464         0.072513
 C         2.697193        -1.689705         0.644297
 O         1.313918        -1.100649         0.428668
 O         4.738828         0.149954         0.094875
 C         4.002279         1.443352         0.418198
 C         2.708242         0.793662         0.932542
 H        -0.212150         1.381635         0.895197
 H         0.187217         1.932065        -0.824408
 H        -0.664821         0.450626        -0.595597
 H         2.140279        -0.971359        -1.834292
 H         2.885420         0.694453        -1.794003
 H         2.913957        -2.653859         0.074263
 H         2.783727        -1.890437         1.693516
 H         4.397543         1.970650         1.300401
 H         3.979954         2.034141        -0.455719
 H         2.299147         0.722899         1.944388
