19
Iteration:  1995
 C         0.256305         1.015420        -0.138621
 C         1.502753         0.203598        -0.082634
 C         2.507003        -0.068845        -1.241850
 C         3.320430        -0.418918         0.025054
 C         2.644901        -1.703492         0.572477
 O         1.324543        -1.102506         0.546293
 O         4.688895         0.173251         0.118943
 C         3.948077         1.461377         0.479900
 C         2.626590         0.727170         0.834767
 H        -0.189776         1.458235         0.771252
 H         0.453145         1.794195        -0.831316
 H        -0.589636         0.422411        -0.569476
 H         2.352839        -0.922003        -1.915181
 H         2.924490         0.799721        -1.793790
 H         2.832726        -2.543163        -0.103861
 H         2.805817        -2.155165         1.583157
 H         4.347744         2.048530         1.465770
 H         4.003918         2.119870        -0.452046
 H         2.458987         0.757177         1.909891
