19
Iteration:  1143charge 0 multiplicity 1
 C         0.177744         0.963677        -0.134652
 C         1.535598         0.257463        -0.097064
 C         2.513178        -0.124189        -1.197955
 C         3.316196        -0.358676         0.076388
 C         2.689047        -1.755719         0.552357
 O         1.355248        -1.129612         0.486650
 O         4.648909         0.144357         0.194763
 C         3.946543         1.494172         0.451274
 C         2.643302         0.823465         0.761568
 H         0.105975         1.215430         0.946675
 H         0.487551         1.944600        -0.667531
 H        -0.704826         0.349304        -0.486194
 H         2.288313        -0.848114        -2.008155
 H         2.777129         0.809686        -1.638409
 H         2.924582        -2.568329        -0.281901
 H         2.798327        -2.121656         1.559161
 H         4.275294         2.117748         1.412040
 H         3.964905         2.033567        -0.462767
 H         2.445020         0.736901         1.877723
