19
Iteration:  4604charge 0 multiplicity 1
 C         0.021132         0.899910        -0.150130
 C         1.507911         0.372380         0.009332
 C         2.403970        -0.014583        -1.205692
 C         3.398130        -0.404113         0.016867
 C         2.634121        -1.692172         0.569045
 O         1.322950        -1.088284         0.524169
 O         4.742721         0.066320         0.098499
 C         4.224536         1.423200         0.421077
 C         2.622791         0.824927         0.844682
 H        -0.603187         0.751859         0.734636
 H        -0.030536         1.946332        -0.505918
 H        -0.466177         0.214511        -0.971706
 H         2.096405        -0.924486        -1.673804
 H         2.706782         0.867820        -1.888227
 H         2.705397        -2.663441        -0.106790
 H         2.796547        -2.052538         1.632724
 H         4.494909         1.709811         1.451763
 H         4.251005         2.151348        -0.515959
 H         2.542133         0.947526         1.915039
