19
Iteration:  2525charge 0 multiplicity 1
 C         0.087658         0.845820        -0.296937
 C         1.444141         0.366011        -0.083922
 C         2.383373        -0.073435        -1.163325
 C         3.368544        -0.372664         0.030104
 C         2.654011        -1.555724         0.632607
 O         1.274796        -1.079550         0.588903
 O         4.653902         0.113267         0.004180
 C         4.182217         1.386333         0.554023
 C         2.774463         0.780640         0.860101
 H        -0.315937         1.203667         0.693332
 H         0.206891         1.439124        -1.145559
 H        -0.417646        -0.111115        -0.629090
 H         2.165158        -0.823182        -1.885987
 H         2.755633         0.742207        -1.825259
 H         2.761372        -2.483423         0.073660
 H         2.822182        -1.822615         1.644980
 H         4.678404         1.496839         1.541999
 H         4.440507         2.120640        -0.171288
 H         2.596010         0.690832         1.917246
