19
Iteration:  3888charge 0 multiplicity 1
 C         0.219257         0.959899        -0.214118
 C         1.563397         0.310741        -0.071177
 C         2.422731        -0.061269        -1.185750
 C         3.362805        -0.429151         0.124276
 C         2.643858        -1.619803         0.595029
 O         1.348767        -1.047440         0.606906
 O         4.638083         0.098344         0.029245
 C         4.041505         1.400898         0.472249
 C         2.663834         0.738483         0.758950
 H        -0.288082         0.943047         0.771812
 H         0.176068         2.069250        -0.490245
 H        -0.491852         0.329681        -0.857547
 H         2.028986        -0.893378        -1.906085
 H         2.694397         0.771057        -1.903085
 H         2.575423        -2.507756        -0.194539
 H         2.820595        -2.205756         1.526867
 H         4.375357         1.574251         1.498926
 H         4.084112         2.344847        -0.170638
 H         2.520689         0.674639         1.888770
