19
Iteration:   514charge 0 multiplicity 1
 C         0.193128         0.903377        -0.138803
 C         1.469603         0.224243        -0.102308
 C         2.522573         0.040307        -1.223238
 C         3.368071        -0.408986         0.005651
 C         2.637938        -1.641035         0.591748
 O         1.334139        -1.164771         0.496986
 O         4.677210         0.183068         0.159969
 C         3.922490         1.445133         0.463740
 C         2.679317         0.754438         0.844046
 H        -0.364320         0.848567         0.721446
 H         0.403612         1.946659        -0.421631
 H        -0.402379         0.361414        -0.850242
 H         2.417480        -0.753470        -2.046326
 H         3.024086         0.963368        -1.584325
 H         2.814761        -2.559889         0.031545
 H         2.823070        -1.951850         1.635613
 H         4.354773         1.927850         1.305407
 H         4.008042         2.104119        -0.434278
 H         2.508466         0.520040         1.937031
