19
Iteration:  3590charge 0 multiplicity 1
 C         0.164903         0.968483        -0.246131
 C         1.425149         0.221680        -0.072048
 C         2.420398        -0.053786        -1.157953
 C         3.313044        -0.400946         0.018984
 C         2.661496        -1.635348         0.537571
 O         1.301638        -1.123968         0.638543
 O         4.731082         0.103851         0.149069
 C         4.162477         1.427345         0.375186
 C         2.651718         0.805960         0.850631
 H        -0.420200         0.899666         0.697865
 H         0.309204         2.020861        -0.301894
 H        -0.450800         0.501046        -1.020027
 H         2.062033        -0.789059        -1.892641
 H         2.634960         0.909545        -1.600181
 H         2.605786        -2.538417        -0.180265
 H         3.101094        -1.949915         1.510543
 H         4.523664         1.988983         1.235265
 H         4.226495         2.094551        -0.545359
 H         2.583843         0.689711         1.920820
