19
Iteration:  1655
 C         0.076115         0.833549        -0.206765
 C         1.518748         0.302180        -0.076755
 C         2.497747        -0.024083        -1.167405
 C         3.324830        -0.354094         0.083106
 C         2.705508        -1.576892         0.591459
 O         1.285073        -1.066294         0.429310
 O         4.674169         0.063013         0.136298
 C         4.109463         1.402062         0.477432
 C         2.651413         0.822324         0.909706
 H        -0.434181         1.124114         0.756481
 H        -0.093418         1.649521        -1.000187
 H        -0.489602         0.006321        -0.708943
 H         2.106559        -0.862676        -1.691674
 H         2.862913         0.720867        -2.039738
 H         2.597440        -2.374857        -0.145198
 H         3.139618        -1.975321         1.612550
 H         4.649675         1.937624         1.355107
 H         4.340025         1.966663        -0.418763
 H         2.654846         0.513586         1.999553
