19
Iteration:  1005
 C         0.102696         0.993680        -0.136001
 C         1.491625         0.250808        -0.080787
 C         2.542416         0.020384        -1.186536
 C         3.352041        -0.380105         0.115152
 C         2.778257        -1.704941         0.624043
 O         1.328551        -1.149090         0.405847
 O         4.675211         0.161123         0.167988
 C         3.978026         1.376884         0.406071
 C         2.608333         0.744139         0.822474
 H        -0.227173         1.329327         0.860535
 H         0.072153         1.825047        -0.764525
 H        -0.659467         0.313296        -0.459026
 H         2.149425        -0.805043        -1.878698
 H         2.970890         0.817824        -1.749233
 H         2.910715        -2.512115        -0.141859
 H         2.998907        -2.019962         1.729610
 H         4.412683         1.858922         1.227698
 H         3.888328         2.174507        -0.528550
 H         2.473325         0.722556         1.845111
