19
Iteration:  3952charge 0 multiplicity 1
 C         0.159936         1.082911        -0.112593
 C         1.496505         0.309633        -0.074178
 C         2.448579        -0.068453        -1.235862
 C         3.377173        -0.419593         0.105006
 C         2.715949        -1.713786         0.627673
 O         1.362044        -1.080213         0.511982
 O         4.642073         0.063548         0.127920
 C         4.047259         1.374593         0.359758
 C         2.620264         0.800595         0.831420
 H        -0.181059         0.961817         0.937255
 H         0.227795         2.080177        -0.662688
 H        -0.604920         0.560601        -0.836854
 H         2.165750        -0.996895        -1.857252
 H         2.826560         0.739995        -1.940718
 H         2.797706        -2.536718        -0.105709
 H         2.962946        -2.053991         1.643701
 H         4.454862         1.797582         1.262293
 H         3.960304         2.041720        -0.463488
 H         2.227960         0.790495         1.868827
