19
Iteration:  2514charge 0 multiplicity 1
 C         0.106333         0.799598        -0.276120
 C         1.530790         0.301763         0.031099
 C         2.429652        -0.022344        -1.182349
 C         3.319172        -0.387046         0.000621
 C         2.577365        -1.587073         0.674342
 O         1.281545        -1.000366         0.519014
 O         4.722887         0.119280         0.038469
 C         4.190971         1.375082         0.482039
 C         2.714428         0.751853         0.829536
 H        -0.613919         1.237592         0.480176
 H        -0.118850         1.484910        -1.044918
 H        -0.426237        -0.162196        -0.561084
 H         2.037968        -0.905614        -1.615482
 H         2.712983         0.870729        -1.784237
 H         2.673857        -2.459924         0.038120
 H         2.927716        -1.695257         1.671844
 H         4.622805         1.641778         1.464229
 H         4.348828         2.268466        -0.071104
 H         2.631476         0.549757         1.885610
