19
Iteration:   336charge 0 multiplicity 1
 C         0.064628         0.798770        -0.214300
 C         1.488864         0.362993        -0.025855
 C         2.458534        -0.019458        -1.183016
 C         3.374775        -0.363480         0.013257
 C         2.744059        -1.620349         0.564336
 O         1.263796        -1.157328         0.447755
 O         4.644014         0.137878         0.097566
 C         4.112067         1.435918         0.548965
 C         2.691954         0.819872         0.894258
 H        -0.401332         0.755661         0.773793
 H         0.006832         1.787954        -0.595294
 H        -0.446218         0.141554        -0.912874
 H         1.944016        -0.944955        -1.784843
 H         2.989727         0.780211        -1.807620
 H         2.947789        -2.475619        -0.100807
 H         2.906288        -1.837380         1.649802
 H         4.735940         1.844199         1.345187
 H         4.334709         2.092566        -0.328625
 H         2.524094         0.708443         1.958980
