19
Iteration:  4279
 C         0.091075         0.878797        -0.262337
 C         1.454269         0.330820        -0.025020
 C         2.434384         0.070337        -1.177840
 C         3.377564        -0.434309        -0.029093
 C         2.656604        -1.714560         0.613582
 O         1.337559        -1.077577         0.679779
 O         4.678685         0.065203         0.045870
 C         4.114027         1.450120         0.453011
 C         2.700440         0.789834         0.782643
 H        -0.286444         0.943738         0.710849
 H         0.238397         1.831959        -0.667858
 H        -0.628578         0.353978        -0.860913
 H         2.089546        -0.658761        -1.903357
 H         2.950239         0.900787        -1.635386
 H         2.539464        -2.649273         0.158080
 H         2.881505        -2.012222         1.587186
 H         4.690461         1.647380         1.363816
 H         4.059109         2.272558        -0.329462
 H         2.556217         0.625271         1.804342
