19
Iteration:  4565
 C         0.103520         0.933464        -0.178392
 C         1.451460         0.273980        -0.009658
 C         2.491943         0.053353        -1.264900
 C         3.395925        -0.417327         0.051035
 C         2.602130        -1.686089         0.597556
 O         1.320354        -1.040916         0.630367
 O         4.777360         0.092475         0.032327
 C         4.038634         1.420743         0.415339
 C         2.653483         0.702219         0.865842
 H        -0.533770         0.573270         0.662513
 H         0.147373         1.993045        -0.485041
 H        -0.452250         0.511835        -1.003554
 H         2.268156        -0.703719        -2.070044
 H         2.709158         0.956279        -1.749852
 H         2.553006        -2.581378         0.024700
 H         2.910892        -1.827076         1.635125
 H         4.613654         1.839652         1.228508
 H         4.193548         2.017555        -0.415139
 H         2.474512         0.541857         1.947124
