19
Iteration:  3634
 C         0.228450         1.074528        -0.143452
 C         1.563629         0.383809        -0.088194
 C         2.468813        -0.140777        -1.152602
 C         3.439132        -0.466470         0.026640
 C         2.648752        -1.719737         0.647334
 O         1.271706        -1.128818         0.472657
 O         4.676835         0.224432         0.041572
 C         3.912331         1.444540         0.476039
 C         2.668252         0.636331         0.862205
 H        -0.069382         1.304036         0.899891
 H         0.463584         2.078869        -0.494092
 H        -0.605062         0.593142        -0.675131
 H         2.026281        -1.067957        -1.573637
 H         2.893612         0.467405        -1.942094
 H         2.713518        -2.731154         0.084847
 H         2.869055        -1.851547         1.725932
 H         4.668809         2.042854         1.005745
 H         3.615957         1.941805        -0.581629
 H         2.384752         0.656283         1.880056
