19
Iteration:  3067charge 0 multiplicity 1
 C         0.129719         1.096664        -0.259564
 C         1.466424         0.278407        -0.050660
 C         2.385587        -0.106192        -1.119098
 C         3.319167        -0.469927         0.059625
 C         2.708237        -1.679813         0.649317
 O         1.349433        -1.134859         0.511466
 O         4.713685         0.129199         0.013196
 C         4.108488         1.420198         0.466266
 C         2.626512         0.821464         0.865860
 H        -0.190017         1.076793         0.851542
 H         0.306237         2.109215        -0.603338
 H        -0.563698         0.355376        -0.819514
 H         2.021755        -0.808538        -1.910789
 H         2.768037         0.722581        -1.767101
 H         2.920098        -2.584237         0.051443
 H         3.024982        -2.068163         1.650184
 H         4.585138         1.720748         1.321572
 H         3.938708         2.046247        -0.401963
 H         2.538315         0.700802         1.985560
