19
Iteration:  1838
 C         0.211808         0.942700        -0.212069
 C         1.529418         0.243300        -0.038537
 C         2.537089         0.033514        -1.225664
 C         3.313023        -0.401399         0.063381
 C         2.641149        -1.665277         0.588400
 O         1.312385        -1.149281         0.535235
 O         4.633401         0.137451         0.110657
 C         3.965084         1.424187         0.481693
 C         2.672615         0.706956         0.806161
 H        -0.141716         1.284998         0.771506
 H         0.414748         1.817253        -0.946950
 H        -0.621927         0.292989        -0.522229
 H         2.455066        -0.672099        -2.008556
 H         2.809603         1.066404        -1.706033
 H         2.586038        -2.713359         0.049431
 H         3.049193        -1.767233         1.624306
 H         4.433755         2.025653         1.368687
 H         4.112765         2.235949        -0.293848
 H         2.612428         0.713621         1.865083
