19
Iteration:  2771charge 0 multiplicity 1
 C         0.093066         0.977033        -0.176519
 C         1.484137         0.251334        -0.060224
 C         2.532594        -0.110852        -1.219924
 C         3.315398        -0.469183         0.080305
 C         2.689710        -1.650407         0.649709
 O         1.269350        -1.070509         0.572251
 O         4.695971         0.131530         0.061662
 C         4.073562         1.467623         0.383411
 C         2.642597         0.759349         0.780203
 H        -0.337465         0.917815         0.865635
 H         0.496304         2.055076        -0.139988
 H        -0.591945         0.642791        -0.925060
 H         2.221741        -0.877619        -1.932884
 H         3.081179         0.802489        -1.583829
 H         2.641397        -2.564040         0.089708
 H         3.006808        -1.959156         1.637076
 H         4.539399         1.864540         1.176415
 H         4.113721         2.272803        -0.342028
 H         2.694927         0.677102         1.861114
