19
Iteration:  2871
 C         0.200597         1.014440        -0.053172
 C         1.564018         0.283258        -0.048105
 C         2.450192        -0.137969        -1.214346
 C         3.372333        -0.466477        -0.022755
 C         2.669425        -1.602769         0.642679
 O         1.312127        -1.065321         0.416789
 O         4.703340         0.140361         0.138985
 C         3.943043         1.451577         0.391935
 C         2.664501         0.698035         0.829392
 H        -0.000061         1.274081         1.047118
 H         0.246249         1.823927        -0.745677
 H        -0.603599         0.386626        -0.529925
 H         1.915068        -1.035682        -1.623741
 H         2.752198         0.575162        -1.927980
 H         2.674330        -2.617514         0.240497
 H         2.769757        -1.526863         1.762931
 H         4.311105         1.924251         1.253225
 H         4.072123         2.240296        -0.467916
 H         2.539143         0.383910         1.881404
