19
Iteration:  4319charge 0 multiplicity 1
 C         0.069548         0.882026        -0.183526
 C         1.534845         0.337833        -0.056112
 C         2.397445        -0.038523        -1.214077
 C         3.343243        -0.430435         0.045506
 C         2.633661        -1.681589         0.598876
 O         1.327395        -1.039784         0.547985
 O         4.654981         0.091906         0.064152
 C         4.140344         1.471034         0.501100
 C         2.743180         0.768603         0.836724
 H        -0.410884         1.226460         0.779541
 H        -0.073199         1.802832        -0.854103
 H        -0.524030        -0.003512        -0.617310
 H         1.904335        -0.886298        -1.700683
 H         2.818445         0.674349        -1.864706
 H         2.663026        -2.607729        -0.083362
 H         3.119979        -1.790981         1.589516
 H         4.871232         1.886305         1.209043
 H         4.251378         2.009915        -0.411757
 H         2.603254         0.660179         1.914971
