19
Iteration:  1471charge 0 multiplicity 1
 C         0.131584         0.911027        -0.265397
 C         1.488189         0.309199        -0.069106
 C         2.473450         0.035790        -1.188096
 C         3.361394        -0.445045         0.033788
 C         2.679002        -1.673591         0.625511
 O         1.297546        -1.088312         0.542038
 O         4.696712         0.179430         0.104337
 C         4.044034         1.374129         0.461853
 C         2.695797         0.663846         0.895367
 H        -0.378708         1.094828         0.731527
 H         0.002937         1.856037        -0.885429
 H        -0.351850         0.137344        -0.919473
 H         2.168319        -0.613872        -1.952025
 H         3.024805         0.931765        -1.648875
 H         2.770841        -2.520060        -0.131047
 H         2.833679        -1.898825         1.694828
 H         4.430745         2.044918         1.286577
 H         4.032621         2.154724        -0.396791
 H         2.368254         0.757580         2.050336
