19
Iteration:  2601
 C         0.144764         1.082059        -0.079555
 C         1.492003         0.299658        -0.061918
 C         2.514122        -0.128492        -1.120673
 C         3.357811        -0.493286         0.173955
 C         2.626735        -1.684356         0.637307
 O         1.292500        -1.154504         0.415400
 O         4.739330         0.162915         0.133049
 C         3.936383         1.449949         0.264552
 C         2.725561         0.759829         0.783341
 H        -0.375047         0.917796         0.874767
 H         0.450701         2.053206        -0.130043
 H        -0.331059         0.640309        -0.960842
 H         2.073013        -0.907185        -1.730098
 H         3.058166         0.598356        -1.671107
 H         2.880490        -2.450623        -0.042596
 H         2.844975        -1.864030         1.660397
 H         4.394546         2.177009         1.057293
 H         3.763123         1.965576        -0.718654
 H         2.452802         0.816009         1.816509
