19
Iteration:  3872
 C         0.117276         0.879647        -0.201917
 C         1.479514         0.301112        -0.094174
 C         2.453674        -0.019132        -1.242331
 C         3.274878        -0.408353        -0.022761
 C         2.681605        -1.679627         0.567679
 O         1.305903        -1.028876         0.642940
 O         4.625423         0.070395         0.051473
 C         4.167902         1.368617         0.520519
 C         2.694881         0.838996         0.873935
 H        -0.450377         1.056682         0.752843
 H         0.317213         1.853339        -0.664963
 H        -0.421833         0.181400        -0.875151
 H         2.240890        -0.761894        -1.939147
 H         2.997654         0.825619        -1.616856
 H         2.775204        -2.548566        -0.003652
 H         3.091949        -1.776717         1.561793
 H         4.696190         1.823023         1.390802
 H         4.329720         2.043957        -0.306182
 H         2.368316         0.772917         1.875459
