19
Iteration:  3485
 C         0.298819         1.094067        -0.164326
 C         1.522321         0.230657         0.004243
 C         2.418391        -0.090091        -1.157138
 C         3.377449        -0.510106         0.017218
 C         2.702543        -1.717278         0.515965
 O         1.266500        -1.096849         0.562823
 O         4.691640         0.131906         0.136353
 C         3.869203         1.546637         0.359201
 C         2.704188         0.677724         0.853947
 H        -0.195764         1.249440         0.784076
 H         0.590613         1.951330        -0.800546
 H        -0.489712         0.650291        -0.825642
 H         2.228498        -0.949137        -1.880693
 H         2.923030         0.696550        -1.749904
 H         2.734003        -2.633639        -0.046321
 H         2.873711        -1.832848         1.578201
 H         4.345482         2.031218         1.257845
 H         3.581365         2.317376        -0.574900
 H         2.651788         0.683405         2.021667
