19
Iteration:  1092charge 0 multiplicity 1
 C         0.148504         0.905348        -0.238321
 C         1.482639         0.239357        -0.022947
 C         2.464065        -0.011322        -1.182692
 C         3.327570        -0.432511         0.056125
 C         2.642610        -1.638808         0.596238
 O         1.351787        -1.107843         0.505479
 O         4.692441         0.190501         0.117239
 C         4.048840         1.516315         0.456044
 C         2.693141         0.635890         0.863234
 H        -0.625744         0.686843         0.504864
 H         0.455404         1.893382        -0.356492
 H        -0.236357         0.441881        -1.115578
 H         2.024868        -0.732103        -1.928164
 H         2.711238         0.845208        -1.795265
 H         2.800786        -2.480487         0.026440
 H         2.861553        -1.763481         1.651865
 H         4.506457         1.832850         1.297785
 H         3.934318         2.237624        -0.359920
 H         2.463378         0.653284         1.877319
