19
Iteration:  3176charge 0 multiplicity 1
 C         0.193329         1.083190        -0.122015
 C         1.502396         0.320950        -0.029112
 C         2.507637        -0.072649        -1.182209
 C         3.428712        -0.533422        -0.015013
 C         2.620292        -1.654100         0.681688
 O         1.342425        -1.179110         0.499178
 O         4.656562         0.159539         0.104880
 C         3.916593         1.465508         0.402007
 C         2.682601         0.665931         0.777180
 H        -0.039661         1.370255         0.947239
 H         0.324848         2.023897        -0.679014
 H        -0.741322         0.716826        -0.727506
 H         2.151435        -0.813764        -1.962134
 H         2.881166         0.935217        -1.692759
 H         2.595660        -2.746581         0.168708
 H         3.069251        -1.709325         1.764154
 H         4.560633         2.083623         1.049617
 H         3.693669         2.138100        -0.481156
 H         2.591754         0.510970         1.892463
