19
Iteration:   918
 C         0.141451         0.837880        -0.264928
 C         1.428500         0.279729        -0.024843
 C         2.440008         0.004768        -1.095264
 C         3.345116        -0.365358         0.108237
 C         2.728084        -1.648394         0.508921
 O         1.313022        -1.140739         0.499713
 O         4.698040         0.110156         0.077544
 C         4.103505         1.426642         0.497941
 C         2.644141         0.845609         0.859213
 H        -0.544894         0.527735         0.591162
 H         0.070585         1.880258        -0.470835
 H        -0.155353         0.411592        -1.226607
 H         2.048110        -0.736937        -1.839319
 H         2.823533         0.938624        -1.482654
 H         2.816136        -2.581225        -0.164366
 H         3.104527        -1.970590         1.571593
 H         4.569734         1.839138         1.285087
 H         4.158261         2.175684        -0.258320
 H         2.252440         0.942939         1.784719
