19
Iteration:  1683
 C         0.091512         0.939482        -0.206278
 C         1.515000         0.246765        -0.107535
 C         2.475894         0.043817        -1.214895
 C         3.367332        -0.464033         0.062534
 C         2.643076        -1.691693         0.636295
 O         1.313004        -1.121164         0.523560
 O         4.723684         0.119350         0.154735
 C         4.006088         1.491850         0.488186
 C         2.699976         0.738993         0.811856
 H        -0.330351         1.353006         0.695018
 H         0.209142         1.726748        -0.945965
 H        -0.525280         0.259405        -0.762282
 H         2.082808        -0.669540        -1.988888
 H         2.938071         0.878178        -1.636088
 H         2.509223        -2.509111        -0.070270
 H         3.051786        -1.919123         1.592863
 H         4.412704         2.089146         1.321939
 H         4.151063         2.087494        -0.462759
 H         2.617584         0.576355         1.862467
