19
Iteration:  4556charge 0 multiplicity 1
 C         0.118484         0.951340        -0.172047
 C         1.481543         0.266776        -0.057453
 C         2.459989        -0.001107        -1.171096
 C         3.375765        -0.457432        -0.027476
 C         2.668319        -1.690771         0.567215
 O         1.250340        -1.062745         0.634402
 O         4.758838         0.164414         0.091108
 C         4.010925         1.394331         0.421492
 C         2.735384         0.719919         0.793640
 H        -0.570051         0.890697         0.740346
 H         0.316056         2.051186        -0.406160
 H        -0.453304         0.573856        -0.998113
 H         2.022404        -0.687199        -1.961016
 H         2.999752         0.840996        -1.522830
 H         2.448000        -2.668366         0.055417
 H         3.199473        -1.872682         1.564484
 H         4.505288         1.730966         1.341942
 H         3.953591         2.087998        -0.466664
 H         2.518175         0.737747         1.890113
