19
Iteration:  1037charge 0 multiplicity 1
 C         0.154242         0.831842        -0.235738
 C         1.431358         0.239645        -0.058026
 C         2.447432        -0.015917        -1.217044
 C         3.367884        -0.416080        -0.010111
 C         2.701450        -1.668622         0.575617
 O         1.253513        -1.024698         0.523366
 O         4.698039         0.211518         0.198499
 C         4.071431         1.409294         0.505481
 C         2.746140         0.757250         0.834499
 H        -0.268147         0.749721         0.761762
 H         0.027571         1.754487        -0.638316
 H        -0.359516         0.162263        -0.862195
 H         1.933984        -0.733994        -1.941891
 H         2.795277         0.863807        -1.698326
 H         2.694075        -2.473972        -0.104572
 H         3.090066        -2.016682         1.526752
 H         4.497410         1.904315         1.301566
 H         3.977348         2.216903        -0.333803
 H         2.637517         0.450616         1.802941
