19
Iteration:   140charge 0 multiplicity 1
 C         0.118517         0.905568        -0.222122
 C         1.536637         0.334501         0.020400
 C         2.479662        -0.036719        -1.229905
 C         3.414703        -0.392358        -0.045386
 C         2.680915        -1.661079         0.564628
 O         1.272608        -1.104965         0.508423
 O         4.714508         0.182035         0.151072
 C         3.953461         1.466996         0.484645
 C         2.727723         0.653900         0.900328
 H        -0.435567         1.144618         0.824335
 H         0.035224         1.790223        -0.877889
 H        -0.473671         0.036323        -0.623813
 H         2.070494        -0.856095        -1.800287
 H         2.600344         0.940928        -1.731304
 H         2.754051        -2.471780        -0.226799
 H         3.149387        -2.087976         1.516838
 H         4.513635         2.005935         1.179627
 H         3.806641         2.135755        -0.471290
 H         2.539665         0.392050         2.086165
