19
Iteration:   649
 C         0.147159         0.877562        -0.211157
 C         1.532903         0.281396        -0.077908
 C         2.534665         0.061645        -1.183404
 C         3.353933        -0.417976         0.018449
 C         2.717040        -1.636303         0.562252
 O         1.268745        -1.160146         0.521563
 O         4.713374         0.197981         0.147922
 C         3.984547         1.417678         0.514613
 C         2.626321         0.702941         0.775271
 H        -0.121138         1.255733         0.773774
 H         0.172193         1.718350        -0.824160
 H        -0.620010         0.178819        -0.429118
 H         2.119417        -0.624030        -1.909220
 H         2.838478         0.962236        -1.683467
 H         2.621872        -2.634489         0.073384
 H         3.072147        -1.802279         1.602812
 H         4.488259         1.851289         1.433112
 H         3.975764         2.084064        -0.332672
 H         2.271901         0.470831         1.899965
