19
Iteration:  3583charge 0 multiplicity 1
 C         0.103303         0.943362        -0.228117
 C         1.439250         0.286629        -0.032346
 C         2.383900        -0.052273        -1.175633
 C         3.316640        -0.335463         0.067723
 C         2.642071        -1.629443         0.541921
 O         1.343276        -1.108877         0.608920
 O         4.738780         0.097575         0.152760
 C         4.121991         1.363306         0.372995
 C         2.690928         0.773182         0.818297
 H        -0.520383         0.738918         0.641911
 H         0.189512         2.037380        -0.546284
 H        -0.423504         0.414193        -1.069116
 H         2.151559        -0.837112        -1.992686
 H         2.824573         0.847209        -1.693190
 H         2.720065        -2.460919        -0.120754
 H         2.961324        -1.900141         1.532500
 H         4.700715         1.708426         1.242095
 H         4.146919         2.071505        -0.393769
 H         2.846891         0.877969         1.936772
