19
Iteration:  3759charge 0 multiplicity 1
 C         0.251465         1.068236        -0.154753
 C         1.535786         0.263881        -0.039677
 C         2.434931        -0.080816        -1.227903
 C         3.415274        -0.482560        -0.013691
 C         2.757088        -1.631599         0.676038
 O         1.280566        -1.112114         0.499858
 O         4.655692         0.119739         0.064574
 C         3.925267         1.388969         0.445226
 C         2.627150         0.743522         0.889733
 H        -0.453699         1.138041         0.708874
 H         0.570745         2.164325        -0.349574
 H        -0.345626         0.700040        -1.030586
 H         1.873862        -0.874303        -1.830705
 H         2.834567         0.769025        -1.858162
 H         2.794077        -2.532786         0.036542
 H         2.903098        -1.911803         1.731576
 H         4.542714         1.969459         1.201649
 H         3.775015         2.136273        -0.461748
 H         2.451604         0.588065         2.016637
