19
Iteration:  3316
 C         0.265495         1.021632        -0.083165
 C         1.489444         0.270146        -0.092260
 C         2.456292        -0.115388        -1.267324
 C         3.375543        -0.478179         0.000776
 C         2.665175        -1.593580         0.589130
 O         1.290133        -1.119152         0.602704
 O         4.642042         0.191985         0.118640
 C         3.957618         1.435791         0.472814
 C         2.676367         0.645033         0.723748
 H         0.001228         1.155959         0.993413
 H         0.432195         2.016140        -0.476422
 H        -0.402752         0.618622        -0.821096
 H         2.219272        -0.922687        -1.991883
 H         2.935974         0.785649        -1.787206
 H         2.680658        -2.560369         0.135983
 H         3.052193        -1.691869         1.576252
 H         4.363204         1.968309         1.446240
 H         4.092853         2.088369        -0.430718
 H         2.363548         0.656186         1.784861
