19
Iteration:  1484charge 0 multiplicity 1
 C         0.106476         0.820488        -0.266536
 C         1.499891         0.290828        -0.059789
 C         2.530453         0.045377        -1.123451
 C         3.348106        -0.392042         0.079258
 C         2.604093        -1.628351         0.557033
 O         1.300567        -1.099688         0.531086
 O         4.686323         0.093587         0.098089
 C         4.040592         1.462917         0.497864
 C         2.692382         0.771159         0.801253
 H        -0.332286         1.094952         0.716871
 H         0.367342         1.690997        -0.839417
 H        -0.664094         0.146771        -0.678104
 H         2.353995        -0.667545        -1.926847
 H         2.814729         1.075652        -1.575312
 H         2.613233        -2.685178         0.095463
 H         3.061343        -1.851329         1.584686
 H         4.627239         1.716982         1.370125
 H         4.074194         2.166322        -0.454971
 H         2.716069         0.476101         1.908940
