19
Iteration:  3473
 C         0.251240         1.056901        -0.184860
 C         1.482561         0.218314        -0.047923
 C         2.528231        -0.069433        -1.119290
 C         3.395198        -0.457425         0.091982
 C         2.602525        -1.731107         0.607803
 O         1.263371        -1.101290         0.532777
 O         4.685709         0.244163         0.053695
 C         3.921966         1.423777         0.380901
 C         2.743037         0.640744         0.841915
 H        -0.191368         1.270468         0.812505
 H         0.575152         2.065995        -0.453216
 H        -0.507811         0.600283        -0.860620
 H         2.164833        -0.800888        -1.929074
 H         2.674023         0.929713        -1.542758
 H         2.604689        -2.565917        -0.071819
 H         2.871055        -2.061295         1.579537
 H         4.461749         2.117048         1.043532
 H         3.779169         2.031105        -0.677131
 H         2.575890         0.651553         1.966656
