19
Iteration:  1173charge 0 multiplicity 1
 C         0.016896         0.913581        -0.237328
 C         1.483530         0.294968        -0.020353
 C         2.466435        -0.069263        -1.224368
 C         3.370218        -0.390311         0.002220
 C         2.655122        -1.600330         0.580398
 O         1.372513        -1.086656         0.509714
 O         4.734472         0.147300         0.161765
 C         3.998615         1.441190         0.520486
 C         2.724450         0.661713         0.823880
 H        -0.193650         1.367770         0.673940
 H         0.232136         1.738444        -0.912506
 H        -0.680733         0.276082        -0.719531
 H         2.144319        -0.842190        -1.887646
 H         2.828717         0.858343        -1.633564
 H         2.787904        -2.528183        -0.050542
 H         2.799082        -1.974204         1.617291
 H         4.393208         2.102131         1.346513
 H         4.004346         2.140468        -0.349176
 H         2.681907         0.381582         1.930070
