19
Iteration:  3209
 C         0.220199         0.997244        -0.168299
 C         1.514427         0.207393        -0.106130
 C         2.393469        -0.182658        -1.184767
 C         3.358559        -0.451945         0.092210
 C         2.654408        -1.637723         0.627234
 O         1.326665        -1.071252         0.514089
 O         4.629355         0.197282         0.017039
 C         4.065564         1.500631         0.565421
 C         2.699299         0.764103         0.770326
 H        -0.063230         1.208457         0.901342
 H         0.502021         1.971797        -0.594885
 H        -0.716120         0.467064        -0.635184
 H         2.046657        -1.023993        -1.842981
 H         2.606227         0.685503        -1.955746
 H         2.703033        -2.562296        -0.098698
 H         2.851788        -2.112699         1.654501
 H         4.700000         1.599924         1.407294
 H         4.067500         2.275055        -0.247565
 H         2.423765         0.622984         1.854572
