19
Iteration:  1451
 C         0.161328         0.948711        -0.228417
 C         1.506855         0.323331        -0.077103
 C         2.444330        -0.112149        -1.201085
 C         3.391578        -0.407013         0.078387
 C         2.689761        -1.712741         0.560742
 O         1.349500        -1.081797         0.501677
 O         4.674330         0.137182         0.132404
 C         3.944008         1.478646         0.515150
 C         2.690175         0.710179         0.863436
 H        -0.446862         1.199604         0.621681
 H         0.352572         1.958129        -0.542819
 H        -0.383939         0.608879        -1.089208
 H         1.994669        -0.946809        -1.674824
 H         2.776214         0.776684        -1.879919
 H         2.610713        -2.640567        -0.105976
 H         3.027993        -1.852119         1.617771
 H         4.468741         2.042243         1.297872
 H         3.834601         2.230618        -0.380804
 H         2.738721         0.496149         1.956154
