19
Iteration:  2709charge 0 multiplicity 1
 C         0.147983         0.967968        -0.193128
 C         1.491083         0.309575         0.025883
 C         2.501621        -0.034283        -1.193551
 C         3.366329        -0.437021         0.067909
 C         2.611994        -1.643728         0.611525
 O         1.289505        -1.161329         0.545180
 O         4.744915         0.135505         0.088605
 C         4.039905         1.392444         0.342966
 C         2.649341         0.802261         0.859941
 H        -0.171192         1.461303         0.736275
 H         0.198449         1.686183        -0.938876
 H        -0.720805         0.378441        -0.503218
 H         2.208024        -0.752109        -1.982093
 H         2.846497         0.847745        -1.697492
 H         2.686796        -2.559013        -0.030435
 H         2.989485        -1.925541         1.661731
 H         4.632371         1.986822         1.154504
 H         3.881780         1.958812        -0.600142
 H         2.489604         0.550979         1.900042
