19
Iteration:  4869
 C         0.131117         0.888775        -0.136289
 C         1.504404         0.302960         0.007467
 C         2.386948         0.025459        -1.257644
 C         3.428872        -0.448859        -0.068376
 C         2.575983        -1.599164         0.635872
 O         1.197527        -1.065835         0.546731
 O         4.725254         0.113273         0.109708
 C         4.129994         1.417526         0.481235
 C         2.786767         0.714687         0.812557
 H        -0.318063         0.716064         0.834625
 H         0.065399         1.836446        -0.637225
 H        -0.406804         0.191729        -0.713475
 H         1.956011        -0.557988        -2.067521
 H         2.661001         0.859778        -1.859248
 H         2.707376        -2.527943         0.010714
 H         2.826547        -1.937924         1.654030
 H         4.740350         2.016139         1.208578
 H         4.138486         1.940558        -0.460313
 H         2.824247         0.599156         1.927293
