19
Iteration:  4468
 C         0.149885         0.931250        -0.121984
 C         1.470061         0.317760        -0.050588
 C         2.446647        -0.046451        -1.153717
 C         3.384675        -0.394450         0.003061
 C         2.647037        -1.609970         0.554052
 O         1.302312        -1.024443         0.532819
 O         4.709723         0.084375         0.116189
 C         4.106241         1.374180         0.411367
 C         2.673463         0.753054         0.807277
 H        -0.350920         0.965743         0.849397
 H        -0.099691         1.684390        -0.865959
 H        -0.328764         0.061945        -0.511843
 H         2.061260        -0.921528        -1.782983
 H         2.619075         0.831061        -1.734753
 H         2.467020        -2.571597        -0.048937
 H         3.031909        -1.831915         1.618344
 H         4.481295         1.801655         1.371395
 H         4.040640         2.123185        -0.472752
 H         2.643313         0.508878         1.895619
