19
Iteration:  1280charge 0 multiplicity 1
 C         0.235740         0.992957        -0.121356
 C         1.485742         0.247240        -0.128278
 C         2.527823        -0.039734        -1.136940
 C         3.341066        -0.385116         0.153965
 C         2.741142        -1.645557         0.596570
 O         1.297512        -1.159269         0.444780
 O         4.646352         0.176816         0.139273
 C         3.954184         1.379841         0.388652
 C         2.627448         0.747999         0.793363
 H        -0.388791         0.906584         0.861677
 H         0.353668         2.085987        -0.356991
 H        -0.535804         0.604723        -0.897898
 H         2.315863        -0.807057        -1.953297
 H         3.113939         0.773832        -1.714800
 H         2.661993        -2.536644         0.007194
 H         2.797672        -1.993967         1.670286
 H         4.523134         1.926058         1.176574
 H         3.844951         2.084492        -0.470400
 H         2.541940         0.611213         1.876227
