19
Iteration:   491
 C         0.004556         0.890824        -0.198439
 C         1.428543         0.251658        -0.113457
 C         2.455234         0.000059        -1.227704
 C         3.419193        -0.409429         0.005976
 C         2.806017        -1.687934         0.493288
 O         1.283520        -1.058652         0.510334
 O         4.711953         0.144648         0.247207
 C         4.064650         1.459660         0.535749
 C         2.712084         0.742916         0.844509
 H        -0.399507         0.968515         0.750723
 H        -0.055550         1.893834        -0.689293
 H        -0.659410         0.131908        -0.628202
 H         2.055498        -0.922244        -1.829090
 H         2.716003         0.903260        -1.797580
 H         2.869864        -2.556920        -0.113849
 H         2.983506        -1.995033         1.529368
 H         4.644047         1.962361         1.269386
 H         4.128113         2.012912        -0.463956
 H         2.399294         0.764428         1.872600
