19
Iteration:  3015
 C         0.152682         1.018634        -0.089581
 C         1.479924         0.288860        -0.080239
 C         2.430982        -0.071416        -1.227711
 C         3.423049        -0.482138         0.046667
 C         2.588576        -1.671798         0.579191
 O         1.301330        -1.067645         0.528211
 O         4.794407         0.171148         0.200385
 C         3.976213         1.432154         0.368280
 C         2.698784         0.662363         0.810403
 H        -0.112892         1.263899         0.940595
 H         0.319502         1.806436        -0.820541
 H        -0.588733         0.467698        -0.741513
 H         2.072223        -0.984303        -1.655990
 H         2.615216         0.682666        -2.044094
 H         2.690241        -2.521399        -0.108782
 H         2.959813        -1.908498         1.602750
 H         4.358345         2.159487         1.169407
 H         3.929930         2.040146        -0.684842
 H         2.515740         0.726192         1.903122
