19
Iteration:  4958charge 0 multiplicity 1
 C         0.204550         1.052321        -0.081792
 C         1.502893         0.273484        -0.063784
 C         2.496694        -0.041034        -1.234917
 C         3.369878        -0.450707        -0.043286
 C         2.672511        -1.610516         0.598658
 O         1.277838        -1.101937         0.531076
 O         4.669995         0.150642         0.088377
 C         3.988098         1.402804         0.404174
 C         2.651058         0.651291         0.876003
 H        -0.079490         1.179181         0.964623
 H         0.397465         1.998805        -0.593384
 H        -0.656182         0.611668        -0.497329
 H         2.122118        -0.905152        -1.712956
 H         3.032117         0.663624        -1.940995
 H         2.673753        -2.624394         0.195025
 H         2.975935        -1.858188         1.631416
 H         4.362180         2.044150         1.228326
 H         3.986239         1.959078        -0.503950
 H         2.678676         0.330036         1.949322
