19
Iteration:   612
 C         0.015992         0.810636        -0.204933
 C         1.429766         0.367051        -0.077794
 C         2.517370         0.003320        -1.141623
 C         3.379035        -0.358492         0.087044
 C         2.719293        -1.649527         0.486637
 O         1.289945        -1.114656         0.435068
 O         4.706571         0.131323         0.169359
 C         4.158853         1.416676         0.505694
 C         2.630554         0.767391         0.855666
 H        -0.260651         0.922186         0.859309
 H        -0.210465         1.750406        -0.781297
 H        -0.583699        -0.077883        -0.482929
 H         2.128961        -0.895683        -1.634396
 H         3.108084         0.724447        -1.801689
 H         3.023256        -2.453142        -0.147093
 H         2.866363        -1.860263         1.543849
 H         4.610017         2.007304         1.285803
 H         3.978841         2.095947        -0.468431
 H         2.474252         0.747766         1.922536
