19
Iteration:    97
 C         0.121490         1.064538        -0.029837
 C         1.428592         0.254517        -0.142354
 C         2.609004        -0.049994        -1.266982
 C         3.382219        -0.411715         0.100499
 C         2.797061        -1.680805         0.522314
 O         1.279003        -1.269903         0.529983
 O         4.649619         0.155937         0.126881
 C         3.956835         1.472420         0.452592
 C         2.599590         0.774926         0.774637
 H        -0.155010         1.222473         1.102407
 H         0.332452         1.988548        -0.597567
 H        -0.777212         0.593609        -0.526255
 H         2.605422        -0.831801        -1.963737
 H         3.006976         0.819414        -1.744776
 H         2.887681        -2.572825        -0.054913
 H         2.985043        -1.999552         1.557749
 H         4.309664         1.894772         1.371648
 H         4.093391         2.247340        -0.447974
 H         2.400794         0.876307         1.956200
