19
Iteration:   130
 C         0.203165         0.892717        -0.138132
 C         1.560398         0.328235        -0.001346
 C         2.393465        -0.041429        -1.329287
 C         3.420609        -0.403102        -0.027306
 C         2.682206        -1.653983         0.510000
 O         1.273734        -1.130700         0.515117
 O         4.721336         0.205526         0.220949
 C         3.910419         1.484277         0.497424
 C         2.717714         0.647280         0.869730
 H        -0.210941         1.368563         0.846636
 H         0.274423         1.783090        -0.843029
 H        -0.487111         0.122322        -0.590943
 H         2.080243        -0.908505        -1.828853
 H         2.610266         0.660695        -2.115007
 H         2.649619        -2.548975        -0.122520
 H         2.969206        -1.861859         1.564794
 H         4.339074         2.068018         1.298598
 H         3.863456         2.067083        -0.532589
 H         2.627432         0.515526         2.073428
