19
Iteration:  3044charge 0 multiplicity 1
 C         0.251931         1.059839        -0.098211
 C         1.515873         0.253736        -0.075239
 C         2.566992        -0.080564        -1.194772
 C         3.346641        -0.497474         0.053705
 C         2.643361        -1.671000         0.573269
 O         1.268730        -1.110478         0.617702
 O         4.627758         0.172775         0.124004
 C         3.957622         1.512735         0.348965
 C         2.652919         0.668608         0.794089
 H        -0.159885         1.486044         0.898217
 H         0.593420         1.907477        -0.723629
 H        -0.457124         0.389037        -0.649622
 H         2.232327        -0.911210        -1.918444
 H         2.899065         0.688675        -1.878002
 H         2.716135        -2.431653        -0.251281
 H         3.004433        -2.269096         1.411905
 H         4.414083         1.920512         1.194238
 H         3.991800         2.019092        -0.571810
 H         2.481842         0.762679         1.902464
