19
Iteration:  1269charge 0 multiplicity 1
 C         0.226120         0.948806        -0.126082
 C         1.537489         0.239074        -0.083527
 C         2.530922        -0.037855        -1.234007
 C         3.371207        -0.472142         0.042858
 C         2.695884        -1.711935         0.620181
 O         1.276284        -1.094497         0.456114
 O         4.648668         0.133812         0.179646
 C         3.948478         1.491486         0.386874
 C         2.586912         0.780422         0.865235
 H        -0.264405         0.776713         0.932616
 H         0.558945         2.015580        -0.212242
 H        -0.397124         0.635893        -1.049103
 H         2.062232        -0.819176        -1.900737
 H         2.913787         0.958902        -1.725253
 H         2.961177        -2.524757        -0.029709
 H         3.085876        -1.798666         1.676058
 H         4.474093         1.983677         1.221207
 H         3.994139         2.052567        -0.583975
 H         2.332307         0.741196         1.936056
