19
Iteration:  3201charge 0 multiplicity 1
 C         0.273346         1.026198        -0.133035
 C         1.507985         0.231787        -0.098055
 C         2.433915        -0.167281        -1.248352
 C         3.370261        -0.392219         0.120317
 C         2.707409        -1.683774         0.699126
 O         1.285776        -1.072394         0.486612
 O         4.628434         0.196972        -0.017980
 C         4.006518         1.438871         0.506267
 C         2.625166         0.729174         0.814433
 H         0.169632         1.179366         0.940226
 H         0.310485         2.034484        -0.678032
 H        -0.664150         0.620372        -0.644948
 H         2.251158        -1.017200        -1.853075
 H         2.718189         0.695311        -1.870588
 H         2.729180        -2.513218        -0.054586
 H         2.888300        -2.102736         1.764194
 H         4.465974         1.669289         1.437525
 H         4.111293         2.275548        -0.237328
 H         2.582720         0.483896         1.860243
