19
Iteration:  4267charge 0 multiplicity 1
 C         0.134730         0.944592        -0.197529
 C         1.530144         0.352307        -0.079795
 C         2.399534        -0.031850        -1.229698
 C         3.254569        -0.462539         0.029194
 C         2.656536        -1.684194         0.608788
 O         1.348970        -1.068377         0.644506
 O         4.692048         0.161312         0.087144
 C         4.082253         1.367538         0.424283
 C         2.723726         0.700918         0.846798
 H        -0.455973         0.956709         0.677799
 H         0.181711         1.937850        -0.578632
 H        -0.335537         0.300447        -0.961587
 H         2.036539        -0.685925        -2.001402
 H         2.693886         0.866299        -1.666927
 H         2.755174        -2.453841        -0.085306
 H         3.112615        -1.853456         1.530005
 H         4.493814         1.975463         1.258104
 H         4.169698         2.077475        -0.475376
 H         2.603258         0.658515         1.874207
