19
Iteration:  1170
 C         0.027019         0.926877        -0.229480
 C         1.486874         0.283164        -0.029894
 C         2.449216        -0.073581        -1.227667
 C         3.404265        -0.370076         0.015241
 C         2.654710        -1.598737         0.565743
 O         1.355696        -1.104151         0.515251
 O         4.718978         0.157041         0.174109
 C         4.011454         1.441483         0.510796
 C         2.707490         0.653896         0.824339
 H        -0.154335         1.388950         0.774628
 H         0.284315         1.724696        -0.906120
 H        -0.670431         0.224037        -0.712631
 H         2.127228        -0.877016        -1.927538
 H         2.980124         0.877823        -1.699930
 H         2.716583        -2.471435        -0.016036
 H         2.871393        -2.001922         1.601929
 H         4.374231         2.028924         1.289169
 H         4.034253         2.151804        -0.359602
 H         2.639752         0.460686         1.876102
