19
Iteration:  4833
 C         0.189743         1.078308        -0.080385
 C         1.497923         0.308750        -0.093569
 C         2.505915        -0.095543        -1.241726
 C         3.361854        -0.414605         0.099191
 C         2.750775        -1.696964         0.560463
 O         1.293289        -1.175189         0.552773
 O         4.683196         0.114997         0.049312
 C         3.960297         1.371151         0.434937
 C         2.617538         0.827854         0.825311
 H        -0.066001         1.486050         0.896803
 H         0.189574         2.081882        -0.506621
 H        -0.738658         0.492706        -0.503723
 H         1.957006        -0.931888        -1.752123
 H         2.999724         0.803784        -1.599811
 H         2.580387        -2.376065        -0.291912
 H         3.008886        -2.155071         1.510845
 H         4.586308         1.647184         1.219462
 H         4.118247         2.038226        -0.446796
 H         2.422054         0.833367         1.883772
