19
Iteration:   677
 C         0.161033         1.027156        -0.259569
 C         1.493754         0.201042        -0.012324
 C         2.478882        -0.074953        -1.239077
 C         3.347726        -0.407735         0.055118
 C         2.772824        -1.730067         0.487863
 O         1.374070        -1.128051         0.539504
 O         4.660596         0.189975         0.135076
 C         3.920588         1.537595         0.570847
 C         2.647020         0.682710         0.848975
 H        -0.407705         1.272234         0.702465
 H         0.607463         2.008390        -0.655695
 H        -0.679098         0.536033        -0.833212
 H         2.031181        -0.934262        -1.735374
 H         2.867947         0.810039        -1.862561
 H         2.683401        -2.634637        -0.071204
 H         3.032854        -1.979093         1.537961
 H         4.476222         1.970181         1.371108
 H         3.875975         2.190911        -0.365634
 H         2.387134         0.448399         1.795608
