19
Iteration:   487charge 0 multiplicity 1
 C         0.008942         0.879665        -0.205496
 C         1.422184         0.273569        -0.126527
 C         2.421748        -0.009264        -1.243425
 C         3.405105        -0.402143         0.002143
 C         2.800658        -1.694768         0.490427
 O         1.294786        -1.079620         0.516173
 O         4.703759         0.134405         0.245346
 C         4.078064         1.455629         0.542353
 C         2.728583         0.815128         0.876625
 H        -0.459916         1.021927         0.886919
 H        -0.018501         1.834752        -0.755065
 H        -0.620222         0.037909        -0.648275
 H         2.178650        -0.909811        -1.866300
 H         2.807313         0.772349        -1.914844
 H         2.835516        -2.576222        -0.205449
 H         2.936879        -2.021273         1.517638
 H         4.674126         2.016984         1.404529
 H         4.107991         2.005601        -0.467702
 H         2.489085         0.641383         1.931058
