19
Iteration:  4423
 C         0.140179         0.870469        -0.210920
 C         1.493400         0.272282         0.019086
 C         2.442380         0.014887        -1.154375
 C         3.358249        -0.376783         0.007488
 C         2.617231        -1.607080         0.569391
 O         1.275661        -1.048352         0.649716
 O         4.699048         0.079462         0.032929
 C         4.079691         1.394321         0.417411
 C         2.727080         0.696342         0.783935
 H        -0.524502         0.765420         0.676104
 H         0.334033         1.914523        -0.516275
 H        -0.472533         0.494375        -1.031314
 H         2.356382        -0.757493        -1.985518
 H         2.830172         0.996179        -1.570693
 H         2.665881        -2.542909        -0.097482
 H         2.921298        -1.793002         1.670213
 H         4.517070         1.707779         1.417472
 H         4.271580         2.211965        -0.430341
 H         2.494192         0.838606         1.859401
