19
Iteration:  4212
 C         0.239064         1.056703        -0.039263
 C         1.532412         0.319464        -0.112115
 C         2.554200        -0.050725        -1.225942
 C         3.319601        -0.463821         0.011633
 C         2.691321        -1.673268         0.693903
 O         1.268464        -1.165094         0.525419
 O         4.682527         0.102732         0.114192
 C         3.951468         1.499650         0.345902
 C         2.603441         0.711494         0.799281
 H        -0.090834         0.881151         0.918524
 H         0.419545         1.991496        -0.473616
 H        -0.533923         0.651426        -0.683569
 H         2.072394        -0.753910        -1.895416
 H         2.842503         0.764075        -1.832569
 H         2.974280        -2.495608         0.098098
 H         2.877168        -2.060100         1.656236
 H         4.546106         1.908826         1.182909
 H         3.880906         2.112076        -0.623729
 H         2.385127         0.710340         1.834675
