19
Iteration:   995
 C         0.117832         0.977210        -0.142991
 C         1.523907         0.285616        -0.101820
 C         2.503884        -0.094745        -1.153404
 C         3.342025        -0.457465         0.095467
 C         2.802783        -1.666859         0.555503
 O         1.308426        -1.174967         0.401713
 O         4.634739         0.174431         0.159101
 C         3.972878         1.444541         0.457365
 C         2.626902         0.796757         0.853368
 H         0.082265         1.370631         0.932349
 H         0.277940         1.828176        -0.732122
 H        -0.797191         0.449544        -0.377387
 H         2.249736        -0.760764        -2.048548
 H         2.970964         0.816077        -1.472143
 H         2.997542        -2.611567        -0.118852
 H         2.869143        -1.982723         1.706710
 H         4.507614         1.944618         1.205841
 H         3.967218         2.163773        -0.597116
 H         2.387714         0.874325         1.860032
