19
Iteration:  3267charge 0 multiplicity 1
 C         0.107532         0.784130        -0.213241
 C         1.497041         0.327708         0.055600
 C         2.489522         0.093795        -1.183846
 C         3.311890        -0.397403         0.032012
 C         2.617322        -1.695173         0.596396
 O         1.259193        -1.082647         0.560769
 O         4.677487         0.066438         0.117829
 C         4.157484         1.404394         0.335572
 C         2.726166         0.875866         0.839322
 H        -0.509760         0.665155         0.701663
 H         0.040092         1.907632        -0.593535
 H        -0.210066         0.074335        -1.082491
 H         2.170160        -0.689602        -1.865706
 H         2.735458         1.049113        -1.615059
 H         2.586352        -2.581119        -0.132920
 H         2.962730        -2.011326         1.669981
 H         4.704472         1.781750         1.179309
 H         4.240527         2.149946        -0.477468
 H         2.696365         0.704933         1.916937
