19
Iteration:  2795charge 0 multiplicity 1
 C         0.136742         0.871109        -0.318377
 C         1.544461         0.391751         0.022227
 C         2.315648         0.023777        -1.148501
 C         3.364418        -0.439097         0.089292
 C         2.625619        -1.608364         0.604015
 O         1.313307        -1.060706         0.567068
 O         4.691134         0.094731         0.034927
 C         4.088630         1.408244         0.400118
 C         2.753327         0.708869         0.891997
 H        -0.433723         0.642130         0.635381
 H         0.092165         1.895616        -0.573308
 H        -0.205993         0.174199        -1.110445
 H         2.253353        -0.956065        -1.646629
 H         2.651245         0.834538        -1.731289
 H         2.616739        -2.596453         0.131188
 H         2.946194        -1.928574         1.652183
 H         4.693332         1.981403         1.035394
 H         3.933350         2.002354        -0.401090
 H         2.724848         0.645528         1.984430
