19
Iteration:  4942
 C         0.171325         1.080641        -0.084703
 C         1.491224         0.264262        -0.009734
 C         2.417767        -0.138231        -1.228490
 C         3.357801        -0.460500         0.010328
 C         2.687731        -1.693185         0.607246
 O         1.232672        -1.051305         0.517411
 O         4.742593         0.174131         0.094235
 C         3.983755         1.449031         0.452411
 C         2.791921         0.629575         0.803246
 H        -0.411630         1.101509         0.879639
 H         0.315960         2.091545        -0.537329
 H        -0.496025         0.522524        -0.957441
 H         2.282113        -0.770131        -2.170040
 H         2.629615         0.783820        -1.773278
 H         2.651593        -2.631711         0.012341
 H         2.937333        -1.808013         1.687714
 H         4.655930         1.983844         1.097102
 H         3.763552         2.203355        -0.376944
 H         2.540140         0.485859         1.847254
