19
Iteration:  1042
 C         0.126064         0.839539        -0.241884
 C         1.441139         0.247625        -0.068470
 C         2.433667         0.005596        -1.217487
 C         3.359579        -0.421956         0.051732
 C         2.726322        -1.663995         0.556630
 O         1.277267        -1.017991         0.558506
 O         4.693018         0.216833         0.157322
 C         4.095892         1.402667         0.514159
 C         2.686274         0.743941         0.806998
 H        -0.429579         0.633413         0.723519
 H         0.138751         1.947287        -0.660077
 H        -0.342915         0.056373        -0.954783
 H         2.173570        -0.813417        -1.885102
 H         2.765663         0.893072        -1.861790
 H         2.600100        -2.568168        -0.200619
 H         3.050562        -2.084252         1.590148
 H         4.568065         1.863652         1.495716
 H         4.146669         2.165284        -0.365195
 H         2.665070         0.402660         1.944510
