19
Iteration:  4829
 C         0.195864         1.072740        -0.087647
 C         1.522298         0.313250        -0.096915
 C         2.476696        -0.096875        -1.211979
 C         3.324253        -0.411921         0.105757
 C         2.736205        -1.717857         0.536454
 O         1.270977        -1.197682         0.564084
 O         4.708126         0.118472         0.062302
 C         3.959179         1.392180         0.392336
 C         2.631736         0.827483         0.836894
 H         0.080995         1.479078         0.955477
 H         0.327581         2.083379        -0.613327
 H        -0.713999         0.572377        -0.527453
 H         1.990531        -0.854359        -1.820394
 H         3.034486         0.746017        -1.808991
 H         2.599351        -2.457043        -0.220045
 H         3.111324        -2.131939         1.485606
 H         4.493042         1.787273         1.326265
 H         4.085806         2.264859        -0.320913
 H         2.457409         0.731810         1.917335
