19
Iteration:  3385charge 0 multiplicity 1
 C         0.086332         0.818696        -0.157076
 C         1.494696         0.309718        -0.051787
 C         2.439278         0.026045        -1.225592
 C         3.350963        -0.439933         0.116635
 C         2.608486        -1.674688         0.516925
 O         1.324548        -0.997098         0.582147
 O         4.724121         0.109490         0.103693
 C         4.113197         1.407064         0.410379
 C         2.693513         0.733604         0.857389
 H        -0.404651         1.100135         0.713911
 H         0.184442         1.712826        -0.707791
 H        -0.384856         0.226206        -0.900316
 H         2.127350        -0.806328        -1.902194
 H         2.873059         0.938678        -1.628196
 H         2.563055        -2.554067        -0.089540
 H         2.949536        -1.950052         1.468958
 H         4.679017         1.852883         1.176245
 H         4.098215         2.153788        -0.486334
 H         2.389334         0.871292         1.880735
