19
Iteration:  3443charge 0 multiplicity 1
 C         0.118329         0.927341        -0.163640
 C         1.521069         0.349298        -0.054131
 C         2.473995        -0.098276        -1.142404
 C         3.340789        -0.420184         0.075964
 C         2.684518        -1.656396         0.594244
 O         1.287485        -1.093946         0.497769
 O         4.642751         0.092314         0.031588
 C         4.030383         1.454627         0.500001
 C         2.772985         0.792743         0.795534
 H        -0.435904         0.665575         0.701299
 H         0.236376         2.008683        -0.362911
 H        -0.519332         0.468856        -0.919766
 H         2.070212        -0.838016        -1.811623
 H         2.716749         0.712313        -1.793020
 H         2.657597        -2.558126        -0.044430
 H         3.028448        -1.829108         1.659599
 H         4.643285         1.739910         1.379307
 H         4.196914         2.074148        -0.345490
 H         2.505901         0.901467         1.893741
