19
Iteration:  3303charge 0 multiplicity 1
 C         0.120787         1.008550        -0.098612
 C         1.517855         0.254618        -0.088191
 C         2.507329        -0.122740        -1.260068
 C         3.362794        -0.435414        -0.021633
 C         2.715831        -1.723579         0.640425
 O         1.328061        -1.007418         0.530629
 O         4.642919         0.146575         0.111243
 C         4.022851         1.420687         0.460169
 C         2.667497         0.769194         0.799059
 H        -0.467444         0.963331         0.895428
 H         0.299607         2.104644        -0.434072
 H        -0.683244         0.489276        -0.704874
 H         2.096754        -1.004369        -1.790239
 H         2.791721         0.643463        -1.984502
 H         2.687124        -2.600179        -0.025667
 H         2.876078        -2.003528         1.712942
 H         4.644784         1.845203         1.400829
 H         3.976428         2.186648        -0.325914
 H         2.554902         0.605544         1.905167
