19
Iteration:  2471charge 0 multiplicity 1
 C         0.171734         0.971861        -0.149001
 C         1.441773         0.259835        -0.042409
 C         2.525766        -0.089843        -1.202534
 C         3.378978        -0.394170         0.035275
 C         2.685198        -1.683918         0.533319
 O         1.298526        -1.103266         0.597053
 O         4.664798         0.091810         0.205532
 C         4.015633         1.436177         0.355071
 C         2.621601         0.843317         0.778404
 H        -0.323023         1.114291         0.906246
 H         0.600798         1.906608        -0.481454
 H        -0.570700         0.509974        -0.899253
 H         2.323677        -0.939213        -1.873935
 H         2.915828         0.761728        -1.847984
 H         2.698949        -2.642174        -0.128956
 H         3.005208        -1.978079         1.531636
 H         4.471943         2.070982         1.076503
 H         4.170800         1.917826        -0.580486
 H         2.489644         0.849939         1.861673
