19
Iteration:   201
 C         0.001618         0.834698        -0.174755
 C         1.475131         0.289609        -0.101486
 C         2.415537         0.003948        -1.286274
 C         3.361522        -0.406508        -0.030505
 C         2.721388        -1.614265         0.601601
 O         1.394172        -1.014176         0.524731
 O         4.704042         0.145471         0.152229
 C         4.063089         1.451582         0.540472
 C         2.741512         0.630560         0.882025
 H        -0.634887         0.565974         0.637034
 H         0.047752         1.923029        -0.234849
 H        -0.458996         0.499107        -1.097448
 H         1.868228        -0.822543        -1.836570
 H         2.595921         0.752753        -2.100912
 H         2.686014        -2.453910        -0.057595
 H         3.031432        -1.840901         1.599918
 H         4.622143         1.779523         1.496097
 H         4.036334         2.244244        -0.180669
 H         2.573556         0.489378         1.867968
