19
Iteration:  2154charge 0 multiplicity 1
 C         0.144891         1.065831        -0.236481
 C         1.529339         0.249680        -0.050843
 C         2.372277        -0.141051        -1.221977
 C         3.428437        -0.393794         0.115518
 C         2.661557        -1.713975         0.527910
 O         1.306411        -1.135446         0.480258
 O         4.697951         0.211686         0.137358
 C         4.022153         1.536121         0.424159
 C         2.691656         0.655481         0.955794
 H        -0.091547         1.390406         0.784386
 H         0.283094         1.986900        -0.818341
 H        -0.657892         0.567434        -0.669298
 H         2.132781        -1.162158        -1.669958
 H         2.896190         0.445420        -1.895617
 H         2.684160        -2.671705         0.000554
 H         3.014700        -1.923109         1.491187
 H         4.539298         1.956423         1.242290
 H         3.675045         2.203519        -0.460568
 H         2.541200         0.399172         2.041265
