19
Iteration:  3508charge 0 multiplicity 1
 C         0.186296         1.090490        -0.164706
 C         1.498686         0.281399        -0.107024
 C         2.400891        -0.126096        -1.226232
 C         3.342805        -0.414020         0.044870
 C         2.714627        -1.641556         0.553536
 O         1.374017        -1.141065         0.582949
 O         4.631085         0.164818         0.152607
 C         4.037896         1.353066         0.477452
 C         2.683556         0.721749         0.815164
 H        -0.155592         1.381372         0.813882
 H         0.433023         1.911682        -0.882158
 H        -0.671852         0.644491        -0.705200
 H         2.048341        -1.048881        -1.749197
 H         2.478625         0.710959        -1.927572
 H         2.866270        -2.425173        -0.192410
 H         3.015469        -1.971764         1.579928
 H         4.462227         2.045322         1.281205
 H         3.794724         1.974550        -0.558560
 H         2.561846         0.722606         1.955959
