19
Iteration:  4772charge 0 multiplicity 1
 C         0.127424         1.011065        -0.147229
 C         1.516733         0.335757        -0.036740
 C         2.486495        -0.027189        -1.170582
 C         3.382283        -0.424503         0.045738
 C         2.640997        -1.655405         0.591965
 O         1.351830        -1.121769         0.572931
 O         4.616721         0.081458         0.021541
 C         4.076013         1.413732         0.435523
 C         2.677356         0.753009         0.830933
 H        -0.508266         0.750737         0.743445
 H         0.169774         2.043521        -0.572389
 H        -0.371415         0.428552        -0.886816
 H         2.096827        -0.739840        -1.936963
 H         2.810983         0.898660        -1.702225
 H         2.492042        -2.539474        -0.088505
 H         3.065979        -1.971691         1.578721
 H         4.660732         1.777851         1.396882
 H         3.999233         2.106964        -0.460034
 H         2.490443         0.521438         1.917824
