19
Iteration:  3360charge 0 multiplicity 1
 C         0.231321         1.037990        -0.186263
 C         1.528299         0.363410        -0.004936
 C         2.461294        -0.131588        -1.095963
 C         3.293702        -0.401920         0.080703
 C         2.673334        -1.698991         0.548584
 O         1.318308        -1.158295         0.484914
 O         4.664506         0.153983         0.080742
 C         3.963384         1.443956         0.344834
 C         2.677416         0.712895         0.895275
 H        -0.194845         1.447446         0.821204
 H         0.281129         1.984672        -0.814261
 H        -0.394761         0.273626        -0.701991
 H         1.982365        -0.952656        -1.640176
 H         3.003231         0.740575        -1.632099
 H         2.862440        -2.469661        -0.188156
 H         2.890695        -2.056807         1.557524
 H         4.628641         1.919664         1.183512
 H         3.881912         2.235865        -0.500314
 H         2.675158         0.544347         1.973307
