19
Iteration:  2127
 C         0.230818         0.928490        -0.215219
 C         1.523562         0.257162        -0.008352
 C         2.492504         0.030936        -1.133245
 C         3.344588        -0.428162         0.064455
 C         2.679674        -1.715506         0.555177
 O         1.274896        -1.106594         0.574441
 O         4.674337         0.123144         0.092415
 C         3.983493         1.458721         0.391240
 C         2.620680         0.743573         0.782727
 H        -0.283617         1.097108         0.741655
 H         0.399604         1.921097        -0.653579
 H        -0.404413         0.418847        -1.025145
 H         2.343582        -0.637650        -1.935208
 H         3.036459         0.990374        -1.449005
 H         2.685210        -2.690061         0.036105
 H         3.169293        -1.794761         1.595931
 H         4.366400         1.800991         1.408989
 H         3.878121         2.189971        -0.378099
 H         2.403439         0.642244         1.843741
