19
Iteration:  1189
 C         0.119463         0.889877        -0.280172
 C         1.471969         0.281341        -0.076324
 C         2.435323         0.059037        -1.168947
 C         3.389410        -0.434469         0.033511
 C         2.745071        -1.709411         0.593680
 O         1.254656        -1.043859         0.520709
 O         4.700805         0.141124         0.093504
 C         4.035565         1.434493         0.521428
 C         2.704478         0.727164         0.902577
 H        -0.497638         1.045786         0.694846
 H         0.037212         1.731740        -1.013802
 H        -0.357039        -0.065695        -0.741691
 H         2.179148        -0.757699        -1.895963
 H         2.854649         0.927228        -1.770260
 H         2.649782        -2.708247         0.115756
 H         3.185163        -1.779051         1.597495
 H         4.681611         1.790221         1.321502
 H         3.953603         2.166421        -0.294808
 H         2.499383         0.630131         1.947743
