19
Iteration:  2967charge 0 multiplicity 1
 C         0.085285         0.855954        -0.204716
 C         1.471076         0.293533        -0.025985
 C         2.452121         0.001599        -1.188599
 C         3.384285        -0.375658         0.032748
 C         2.675593        -1.603532         0.660400
 O         1.257728        -1.021103         0.601331
 O         4.731933         0.062128        -0.022691
 C         4.113224         1.351740         0.473353
 C         2.638116         0.790434         0.802711
 H        -0.408004         0.631485         0.791170
 H         0.084983         1.842010        -0.613091
 H        -0.287438         0.343483        -1.062017
 H         2.233635        -0.663108        -2.077929
 H         2.867036         0.921767        -1.544929
 H         2.731782        -2.493343         0.067120
 H         2.804571        -1.748006         1.708167
 H         4.623933         1.546123         1.366536
 H         4.337188         2.107100        -0.285736
 H         2.627427         0.599130         1.888320
