19
Iteration:  1165
 C         0.102504         0.950751        -0.193693
 C         1.475928         0.248823        -0.075997
 C         2.437165        -0.044957        -1.236508
 C         3.450338        -0.375023         0.049765
 C         2.684168        -1.623596         0.551010
 O         1.297191        -1.130669         0.528062
 O         4.687695         0.186116         0.199987
 C         4.028410         1.447149         0.466380
 C         2.668186         0.679441         0.817624
 H        -0.228636         1.323507         0.813931
 H         0.293919         1.785092        -0.942877
 H        -0.620353         0.179334        -0.566787
 H         2.161711        -0.847079        -1.938509
 H         3.004739         0.629977        -1.800726
 H         2.613250        -2.549874        -0.156786
 H         3.076184        -1.896196         1.521638
 H         4.524898         1.902842         1.436188
 H         4.050685         2.088315        -0.389340
 H         2.492778         0.616932         1.930860
