19
Iteration:  1931charge 0 multiplicity 1
 C         0.060197         0.873944        -0.269250
 C         1.474304         0.331629        -0.000340
 C         2.480697        -0.010448        -1.197150
 C         3.287675        -0.366253         0.060593
 C         2.711199        -1.647730         0.564172
 O         1.272618        -1.059065         0.521851
 O         4.710111         0.069368         0.128381
 C         4.111718         1.390149         0.484031
 C         2.742131         0.779059         0.847138
 H        -0.424134         0.507557         0.619232
 H         0.025085         1.900928        -0.400102
 H        -0.387453         0.213807        -1.015473
 H         2.280970        -0.803780        -1.917025
 H         2.727368         0.881765        -1.804231
 H         2.812676        -2.486031        -0.111491
 H         2.975637        -1.897699         1.623302
 H         4.531686         2.051878         1.293868
 H         4.194850         2.052784        -0.424279
 H         2.413857         0.720774         1.960932
