19
Iteration:  2509charge 0 multiplicity 1
 C         0.085152         0.761574        -0.274478
 C         1.505799         0.330522         0.056100
 C         2.459931        -0.007124        -1.210171
 C         3.332152        -0.404961         0.035313
 C         2.608025        -1.627247         0.652841
 O         1.283019        -0.984809         0.515047
 O         4.750571         0.089946         0.034915
 C         4.162986         1.390065         0.503158
 C         2.707198         0.769091         0.807026
 H        -0.464467         1.236788         0.526509
 H        -0.076247         1.642791        -1.015098
 H        -0.499606        -0.076286        -0.559396
 H         1.924689        -0.864616        -1.744146
 H         2.762889         0.882335        -1.744099
 H         2.397244        -2.592466         0.105509
 H         2.925189        -1.595078         1.749982
 H         4.649660         1.796831         1.501096
 H         4.142829         2.278597        -0.273312
 H         2.660601         0.577292         1.908910
