19
Iteration:  2281
 C         0.273607         1.032318        -0.176599
 C         1.518489         0.193209        -0.103369
 C         2.479770        -0.070423        -1.255481
 C         3.330348        -0.455362         0.026262
 C         2.684243        -1.729929         0.643968
 O         1.303826        -1.089373         0.600418
 O         4.696709         0.160975         0.127363
 C         3.912574         1.457212         0.423548
 C         2.635759         0.737513         0.786454
 H        -0.312981         0.908927         0.757369
 H         0.520020         2.148864        -0.375943
 H        -0.426082         0.632803        -0.973031
 H         2.047481        -0.662639        -2.099095
 H         2.730000         0.906002        -1.580258
 H         2.755781        -2.619875        -0.010003
 H         3.014921        -1.895607         1.712953
 H         4.538311         1.896830         1.279703
 H         3.893708         2.197159        -0.269364
 H         2.501540         0.870618         1.872244
