19
Iteration:  1052
 C         0.053412         0.824586        -0.264213
 C         1.500250         0.297059        -0.067441
 C         2.449371        -0.020135        -1.212912
 C         3.377382        -0.362611         0.075325
 C         2.690365        -1.660724         0.514710
 O         1.348723        -1.064920         0.615226
 O         4.693835         0.135224         0.087308
 C         4.077394         1.460941         0.549410
 C         2.647652         0.714504         0.824729
 H        -0.645505         0.825247         0.616681
 H         0.154685         1.931542        -0.538227
 H        -0.435827         0.352026        -1.163349
 H         2.353616        -0.893801        -1.844658
 H         2.777870         0.911509        -1.780461
 H         2.676157        -2.572610        -0.244386
 H         2.908205        -1.976800         1.611168
 H         4.582109         1.781661         1.531733
 H         4.291746         2.250716        -0.301564
 H         2.396876         0.732734         1.936798
