19
Iteration:  3432
 C         0.084361         0.876230        -0.177842
 C         1.487647         0.307072        -0.056448
 C         2.351926        -0.050627        -1.207255
 C         3.364053        -0.409259         0.025717
 C         2.703305        -1.575131         0.622519
 O         1.382055        -1.010077         0.517628
 O         4.647564         0.089420         0.111631
 C         4.175441         1.326404         0.469637
 C         2.631182         0.810795         0.777203
 H        -0.323761         0.715454         0.785769
 H        -0.046943         1.972605        -0.284924
 H        -0.387633         0.442593        -1.057073
 H         2.043065        -0.913111        -1.769706
 H         2.811443         0.781519        -1.679624
 H         2.780433        -2.458659        -0.061495
 H         2.932822        -1.987081         1.656346
 H         4.505433         1.775107         1.430691
 H         4.312742         2.068302        -0.275896
 H         2.612834         0.422318         1.838535
