19
Iteration:  4874
 C         0.102325         0.886422        -0.138985
 C         1.517432         0.304980         0.016000
 C         2.362755         0.034391        -1.236527
 C         3.421408        -0.451428        -0.053324
 C         2.567561        -1.620081         0.614412
 O         1.221335        -1.056540         0.559891
 O         4.745900         0.108204         0.106580
 C         4.167278         1.390659         0.468362
 C         2.783556         0.706115         0.807647
 H        -0.428302         0.843322         0.846120
 H        -0.034384         1.918240        -0.562685
 H        -0.162879         0.062795        -0.959688
 H         2.076691        -0.701685        -2.044419
 H         2.596094         1.017066        -1.803621
 H         2.688608        -2.446769        -0.050722
 H         2.756083        -1.767401         1.698516
 H         4.637077         2.108695         1.154425
 H         4.030050         2.081715        -0.444941
 H         2.589299         0.552644         1.872304
