19
Iteration:  3395charge 0 multiplicity 1
 C         0.056502         0.835085        -0.204621
 C         1.429877         0.285354        -0.044369
 C         2.467012         0.010681        -1.162107
 C         3.329434        -0.393841        -0.020089
 C         2.626169        -1.633845         0.566967
 O         1.320887        -0.995196         0.627938
 O         4.721427         0.098834         0.156311
 C         4.153900         1.389127         0.415478
 C         2.719646         0.736689         0.763102
 H        -0.406696         0.741855         0.773775
 H        -0.002091         1.811513        -0.607688
 H        -0.553592         0.116208        -0.771269
 H         2.234716        -0.546858        -2.101245
 H         2.873241         0.971977        -1.551300
 H         2.638018        -2.428094        -0.151076
 H         2.807318        -1.965690         1.528452
 H         4.640353         1.733098         1.307031
 H         4.283153         2.168750        -0.463792
 H         2.707723         0.500719         1.817833
