19
Iteration:  3593
 C         0.178949         0.966503        -0.240770
 C         1.432963         0.202132        -0.068044
 C         2.436162        -0.042024        -1.154126
 C         3.329334        -0.430479         0.007249
 C         2.676357        -1.654709         0.539889
 O         1.276754        -1.121304         0.647978
 O         4.712464         0.102073         0.142260
 C         4.163705         1.472127         0.377980
 C         2.652985         0.812670         0.839130
 H        -0.366384         0.959896         0.713477
 H         0.401503         2.075461        -0.272695
 H        -0.489197         0.579881        -1.056378
 H         2.054134        -0.853312        -1.898057
 H         2.580778         0.969598        -1.619427
 H         2.608620        -2.496871        -0.146765
 H         3.103865        -1.969823         1.471614
 H         4.481169         2.089825         1.196204
 H         4.237211         1.964241        -0.482698
 H         2.405638         0.579417         1.935970
