19
Iteration:  4553charge 0 multiplicity 1
 C         0.122353         0.960194        -0.176581
 C         1.494653         0.273951        -0.064320
 C         2.443959        -0.023463        -1.145633
 C         3.364202        -0.479067        -0.046354
 C         2.687295        -1.687284         0.565888
 O         1.243410        -1.069288         0.629568
 O         4.732405         0.175907         0.104277
 C         4.020466         1.394398         0.422741
 C         2.745596         0.718922         0.772442
 H        -0.473363         1.044072         0.765386
 H         0.334414         2.028660        -0.290027
 H        -0.395519         0.531511        -1.024834
 H         2.049400        -0.688983        -1.918712
 H         2.983811         0.807665        -1.523847
 H         2.544742        -2.590372         0.055125
 H         3.142105        -1.928605         1.507665
 H         4.453152         1.840912         1.312939
 H         3.898407         2.111785        -0.318567
 H         2.596782         0.752705         1.850987
