19
Iteration:   932
 C         0.145226         0.864346        -0.302523
 C         1.532143         0.313729        -0.030450
 C         2.468049         0.040895        -1.228259
 C         3.346835        -0.384365         0.072272
 C         2.705073        -1.663837         0.566355
 O         1.335598        -1.157243         0.591741
 O         4.632770         0.172069         0.093105
 C         4.021062         1.410626         0.483962
 C         2.642131         0.758563         0.886479
 H        -0.652674         0.770711         0.565974
 H         0.377868         1.938035        -0.375379
 H        -0.421352         0.333775        -1.111772
 H         2.243543        -0.747934        -1.981058
 H         2.861535         0.888079        -1.798990
 H         2.836928        -2.411635        -0.246696
 H         2.959233        -1.964320         1.570300
 H         4.515679         1.680354         1.433782
 H         4.071979         2.090592        -0.291025
 H         2.673962         0.616391         2.002974
