19
Iteration:  2748
 C         0.253582         1.040496        -0.010878
 C         1.518395         0.215908        -0.174847
 C         2.490672        -0.207508        -1.296767
 C         3.349398        -0.402113         0.028781
 C         2.636592        -1.618872         0.630229
 O         1.328036        -1.096529         0.547690
 O         4.707588         0.149657         0.179206
 C         3.961392         1.412184         0.431774
 C         2.598146         0.784727         0.713484
 H        -0.069991         1.067064         1.056710
 H         0.608430         2.114005        -0.344103
 H        -0.450547         0.553311        -0.646424
 H         1.899111        -0.962230        -1.772971
 H         2.596652         0.713062        -1.953046
 H         2.792096        -2.551693         0.098287
 H         2.886612        -1.872070         1.637074
 H         4.393567         1.985411         1.161993
 H         3.975542         2.099466        -0.435381
 H         2.391363         0.811687         1.800656
