19
Iteration:   434charge 0 multiplicity 1
 C         0.045977         0.928769        -0.254912
 C         1.491422         0.270596        -0.058118
 C         2.589145         0.032499        -1.207521
 C         3.365588        -0.414560         0.017523
 C         2.612679        -1.654140         0.623773
 O         1.365164        -1.166745         0.555658
 O         4.692549         0.226393         0.056562
 C         3.994845         1.457051         0.545377
 C         2.698782         0.593935         0.882550
 H        -0.332700         1.230549         0.726450
 H         0.185492         1.820223        -0.869983
 H        -0.634942         0.272028        -0.839105
 H         2.170111        -0.524299        -2.142135
 H         2.846388         0.951327        -1.706410
 H         2.779853        -2.478543        -0.001148
 H         2.914698        -1.809688         1.651628
 H         4.555500         1.965126         1.392985
 H         3.827898         2.171965        -0.347832
 H         2.475947         0.382996         1.854924
