19
Iteration:   293charge 0 multiplicity 1
 C         0.187790         0.857362        -0.201656
 C         1.491417         0.188303        -0.067309
 C         2.456929        -0.010603        -1.262759
 C         3.348023        -0.419830        -0.042051
 C         2.698458        -1.607166         0.517477
 O         1.287849        -1.062827         0.603600
 O         4.678987         0.193472         0.123296
 C         4.013847         1.458901         0.590255
 C         2.699794         0.681136         0.841576
 H        -0.165365         1.281229         0.742866
 H         0.255097         1.628374        -0.948144
 H        -0.555268         0.145916        -0.603101
 H         2.142748        -0.669925        -2.202858
 H         2.857875         0.943782        -1.706266
 H         2.491065        -2.511276        -0.152861
 H         3.187454        -1.791310         1.544159
 H         4.523794         1.836371         1.422355
 H         3.811767         2.313194        -0.080813
 H         2.515981         0.465387         1.946870
