19
Iteration:  3046charge 0 multiplicity 1
 C         0.242775         1.062815        -0.099270
 C         1.514495         0.268760        -0.086555
 C         2.557853        -0.078403        -1.187938
 C         3.351097        -0.488112         0.068919
 C         2.649114        -1.676893         0.566937
 O         1.277011        -1.124615         0.617899
 O         4.633090         0.167342         0.108832
 C         3.948494         1.500856         0.361411
 C         2.656170         0.675641         0.791432
 H        -0.209672         1.523749         0.839899
 H         0.619728         1.891532        -0.673237
 H        -0.503377         0.388426        -0.668506
 H         2.249891        -0.901504        -1.852099
 H         2.898887         0.713653        -1.891635
 H         2.711203        -2.430970        -0.185282
 H         2.982932        -2.255830         1.438603
 H         4.418160         1.858224         1.219859
 H         4.055049         2.048270        -0.621473
 H         2.460010         0.812804         1.889163
