19
Iteration:  4177
 C         0.092401         0.905310        -0.191641
 C         1.480145         0.342521        -0.057221
 C         2.409649        -0.076745        -1.217863
 C         3.361115        -0.382932         0.002500
 C         2.667549        -1.682702         0.621938
 O         1.242416        -1.083841         0.575814
 O         4.743041         0.100965         0.088318
 C         4.104355         1.459796         0.466375
 C         2.746943         0.739025         0.819031
 H        -0.320172         1.288892         0.739058
 H         0.177998         1.920093        -0.625246
 H        -0.529887         0.178196        -0.734285
 H         1.920065        -0.884928        -1.739435
 H         2.719337         0.779772        -1.839473
 H         2.649680        -2.414521        -0.125825
 H         3.041085        -1.849539         1.590664
 H         4.675283         1.910359         1.350412
 H         4.367404         2.173798        -0.342325
 H         2.475134         0.480637         1.879557
