19
Iteration:  3496charge 0 multiplicity 1
 C         0.287433         1.092315        -0.176463
 C         1.489427         0.295372         0.021578
 C         2.419611        -0.130083        -1.263084
 C         3.349058        -0.387021         0.024273
 C         2.731289        -1.696763         0.555526
 O         1.324790        -1.136378         0.569532
 O         4.677104         0.109529         0.155952
 C         3.883573         1.506831         0.414692
 C         2.639038         0.692204         0.842408
 H        -0.133372         1.513453         0.745686
 H         0.588375         2.040347        -0.679406
 H        -0.427531         0.434902        -0.708803
 H         1.884907        -1.018100        -1.764007
 H         2.873520         0.586823        -1.974600
 H         2.674202        -2.527122        -0.126316
 H         3.125202        -2.065784         1.514822
 H         4.532246         2.053323         1.174015
 H         4.042046         2.102517        -0.649169
 H         2.502892         0.343191         1.935242
