19
Iteration:  2851
 C         0.133305         0.966886        -0.096339
 C         1.482627         0.281599        -0.114798
 C         2.467483        -0.113814        -1.302214
 C         3.375510        -0.448442         0.046434
 C         2.664192        -1.652663         0.598534
 O         1.291829        -1.075752         0.627451
 O         4.641165         0.146041         0.095390
 C         4.085823         1.439520         0.492480
 C         2.686734         0.788178         0.741128
 H        -0.023617         1.163106         0.983879
 H         0.109805         1.794611        -0.754258
 H        -0.657995         0.342614        -0.623904
 H         2.342527        -0.954108        -2.052416
 H         2.997161         0.645633        -1.848803
 H         2.680732        -2.491309        -0.143754
 H         2.892081        -1.857847         1.701863
 H         4.605474         1.844044         1.380294
 H         4.147820         2.046477        -0.329143
 H         2.515303         0.718153         1.835629
