19
Iteration:  1312charge 0 multiplicity 1
 C         0.186562         0.927424        -0.229599
 C         1.459890         0.305204        -0.029898
 C         2.411194        -0.063359        -1.228142
 C         3.393468        -0.417531         0.053951
 C         2.717123        -1.701100         0.556988
 O         1.264307        -1.086452         0.500760
 O         4.699959         0.209453         0.150012
 C         4.030653         1.421565         0.517866
 C         2.702305         0.721933         0.816105
 H        -0.193024         1.280908         0.829608
 H         0.249749         1.840318        -0.876384
 H        -0.498055         0.163644        -0.763828
 H         2.013947        -0.983742        -1.806935
 H         3.019490         0.781358        -1.815460
 H         2.593018        -2.651948         0.033499
 H         2.914433        -2.001605         1.636522
 H         4.479080         1.980098         1.331971
 H         3.908613         2.235512        -0.228507
 H         2.559869         0.570007         1.856077
