19
Iteration:  2621
 C         0.129251         1.010466        -0.139521
 C         1.545378         0.298375        -0.111631
 C         2.517163        -0.067619        -1.233812
 C         3.369723        -0.368611         0.124940
 C         2.682870        -1.688386         0.654106
 O         1.300494        -1.148800         0.539035
 O         4.637031         0.063999         0.095535
 C         4.033684         1.452559         0.356516
 C         2.615897         0.793933         0.794572
 H        -0.240699         0.740324         0.872380
 H         0.270475         2.097814        -0.131151
 H        -0.587898         0.720877        -0.892463
 H         2.359683        -0.948194        -1.805994
 H         2.842879         0.806858        -1.844365
 H         2.783877        -2.629576         0.084293
 H         3.051240        -1.732788         1.724469
 H         4.626726         1.836149         1.313824
 H         4.005309         2.009276        -0.602415
 H         2.446147         0.793188         1.879371
