19
Iteration:  1967
 C         0.095043         0.930728        -0.189230
 C         1.464215         0.288118        -0.097924
 C         2.485913        -0.006084        -1.218495
 C         3.315804        -0.426397        -0.005944
 C         2.719729        -1.684545         0.627672
 O         1.281882        -1.056205         0.537608
 O         4.690738         0.123848         0.111283
 C         4.052632         1.435409         0.507216
 C         2.753633         0.716725         0.833126
 H        -0.475255         1.046979         0.736615
 H        -0.061445         1.921869        -0.725352
 H        -0.474544         0.298646        -0.906761
 H         2.374894        -0.858621        -1.878890
 H         2.935800         0.952028        -1.644101
 H         2.899408        -2.598260         0.011085
 H         2.827947        -1.939741         1.675578
 H         4.437668         1.849715         1.367314
 H         4.120700         2.043496        -0.380132
 H         2.498849         0.664339         1.981204
