19
Iteration:  3043charge 0 multiplicity 1
 C         0.256275         1.057633        -0.098416
 C         1.515927         0.245970        -0.067172
 C         2.568524        -0.084527        -1.200335
 C         3.345962        -0.498610         0.046553
 C         2.639988        -1.671048         0.574961
 O         1.265317        -1.102424         0.616857
 O         4.626152         0.175224         0.132289
 C         3.960882         1.514126         0.341873
 C         2.651944         0.667179         0.796463
 H        -0.120492         1.448869         0.910888
 H         0.567438         1.920098        -0.753901
 H        -0.433179         0.406439        -0.632597
 H         2.227337        -0.908003        -1.941031
 H         2.904603         0.684154        -1.862609
 H         2.710350        -2.434605        -0.286305
 H         3.013170        -2.264020         1.410932
 H         4.426802         1.975675         1.201536
 H         3.954245         2.019444        -0.554522
 H         2.495900         0.727382         1.897443
