19
Iteration:   826charge 0 multiplicity 1
 C         0.146500         1.018671        -0.248413
 C         1.466267         0.223122         0.006640
 C         2.493137        -0.031108        -1.172977
 C         3.365569        -0.413696         0.099250
 C         2.699683        -1.671308         0.521595
 O         1.331181        -1.202590         0.445469
 O         4.733396         0.205728         0.095279
 C         3.896253         1.483822         0.491474
 C         2.697681         0.657514         0.900926
 H        -0.140295         1.488295         0.627947
 H         0.289641         1.816592        -0.994077
 H        -0.686573         0.435301        -0.662024
 H         2.079375        -0.891401        -1.697019
 H         2.852206         0.829031        -1.805267
 H         2.817226        -2.602299        -0.074230
 H         2.946622        -1.899327         1.594714
 H         4.358792         1.975184         1.428259
 H         3.837534         2.368468        -0.227332
 H         2.722176         0.728863         2.069195
