19
Iteration:  1542
 C         0.166680         0.903944        -0.161797
 C         1.510531         0.248468        -0.084222
 C         2.504013        -0.052811        -1.250332
 C         3.362636        -0.419576         0.096526
 C         2.677687        -1.657241         0.561080
 O         1.269165        -1.047979         0.506160
 O         4.694125         0.177176         0.167007
 C         3.970962         1.421578         0.473148
 C         2.677916         0.711453         0.830600
 H        -0.224929         1.081291         0.811089
 H         0.417487         1.872717        -0.567130
 H        -0.440710         0.401873        -0.884563
 H         2.119213        -0.873256        -1.992978
 H         2.865178         0.785456        -1.767543
 H         2.605960        -2.562099        -0.059094
 H         3.157388        -1.712096         1.581373
 H         4.447459         2.034175         1.254153
 H         4.044372         2.026172        -0.441290
 H         2.437832         0.518606         1.814919
