19
Iteration:  1310
 C         0.166119         0.945173        -0.212541
 C         1.473472         0.291314        -0.047246
 C         2.428289        -0.071945        -1.220455
 C         3.399282        -0.423046         0.050071
 C         2.720615        -1.708738         0.558165
 O         1.256844        -1.102491         0.492949
 O         4.712146         0.203439         0.150567
 C         4.020697         1.447050         0.510518
 C         2.692109         0.737951         0.834613
 H        -0.264139         1.298255         0.779481
 H         0.241449         1.811695        -0.837344
 H        -0.495855         0.252128        -0.771216
 H         1.973213        -0.908886        -1.778380
 H         3.039935         0.738765        -1.840190
 H         2.541807        -2.677754         0.094999
 H         2.910906        -2.025504         1.603096
 H         4.537839         1.941306         1.256074
 H         3.932149         2.278446        -0.211421
 H         2.562122         0.574664         1.827713
