19
Iteration:  2865
 C         0.195170         0.982669        -0.040721
 C         1.536190         0.290733        -0.031057
 C         2.505770        -0.194637        -1.251506
 C         3.298454        -0.420490        -0.032581
 C         2.649880        -1.628686         0.646250
 O         1.332966        -1.027997         0.442529
 O         4.663926         0.146710         0.143886
 C         3.983072         1.441628         0.412451
 C         2.693561         0.709154         0.768037
 H        -0.230863         1.342072         0.867000
 H         0.360385         1.922327        -0.667290
 H        -0.538005         0.235093        -0.373339
 H         2.070045        -1.060402        -1.730379
 H         2.679735         0.747085        -1.877985
 H         2.624067        -2.680253         0.251461
 H         3.039422        -1.803530         1.673820
 H         4.449963         1.929185         1.368414
 H         4.059111         2.260721        -0.290621
 H         2.481265         0.554323         1.834910
