19
Iteration:  4201charge 0 multiplicity 1
 C         0.196604         1.006917        -0.093017
 C         1.510576         0.297754        -0.105039
 C         2.460672        -0.065472        -1.237745
 C         3.354479        -0.414276         0.075310
 C         2.684256        -1.665078         0.628045
 O         1.332750        -1.112915         0.505239
 O         4.647973         0.096095         0.100645
 C         3.936512         1.403174         0.399668
 C         2.692482         0.742343         0.809910
 H        -0.075084         1.193117         0.899895
 H         0.352823         2.037813        -0.287323
 H        -0.597900         0.541918        -0.661913
 H         2.258687        -0.933430        -1.862204
 H         2.980176         0.729660        -1.713665
 H         2.611032        -2.607793         0.154603
 H         3.069006        -1.551110         1.612967
 H         4.392547         2.036184         1.202974
 H         4.038438         2.036775        -0.534754
 H         2.538024         0.625456         1.861837
