19
Iteration:  4659charge 0 multiplicity 1
 C         0.221807         1.086254        -0.146520
 C         1.523121         0.296416        -0.074625
 C         2.368263        -0.094989        -1.199697
 C         3.372660        -0.451187         0.099293
 C         2.664887        -1.691595         0.544947
 O         1.322352        -1.135849         0.539665
 O         4.714997         0.171066         0.055477
 C         3.968859         1.429832         0.449601
 C         2.691982         0.667488         0.857285
 H        -0.063394         1.307836         0.876036
 H         0.261741         1.956947        -0.782592
 H        -0.669608         0.500869        -0.540056
 H         1.920339        -0.734907        -1.972786
 H         3.001065         0.686543        -1.674044
 H         2.885737        -2.613066        -0.119862
 H         2.810997        -1.886327         1.642155
 H         4.260434         2.071128         1.319129
 H         3.878781         2.183652        -0.462470
 H         2.668836         0.562332         1.924038
