19
Iteration:  3815charge 0 multiplicity 1
 C         0.174600         0.993906        -0.141545
 C         1.541153         0.309673        -0.119588
 C         2.515073        -0.046138        -1.143345
 C         3.348980        -0.408244         0.080316
 C         2.593861        -1.671619         0.530947
 O         1.343161        -1.088384         0.567433
 O         4.646799         0.079068         0.094326
 C         4.017156         1.417124         0.371015
 C         2.678870         0.765830         0.868259
 H        -0.109847         1.109845         0.934001
 H         0.040023         1.897602        -0.763476
 H        -0.624850         0.324435        -0.567772
 H         2.354182        -0.946490        -1.763051
 H         2.757344         0.808615        -1.752232
 H         2.768016        -2.432051        -0.201584
 H         2.730376        -2.052251         1.559696
 H         4.364491         1.937483         1.317587
 H         4.150712         2.043417        -0.582086
 H         2.584196         0.641468         1.974667
