19
Iteration:  4420
 C         0.145940         0.874451        -0.199144
 C         1.493826         0.267112         0.020982
 C         2.472441         0.004635        -1.173525
 C         3.357170        -0.360537         0.009199
 C         2.630502        -1.593084         0.584373
 O         1.269154        -1.049889         0.642622
 O         4.680849         0.068298         0.024083
 C         4.070658         1.417843         0.421063
 C         2.748955         0.684001         0.790705
 H        -0.556625         0.797377         0.666722
 H         0.358495         1.919833        -0.505510
 H        -0.516315         0.511795        -1.109933
 H         2.198921        -0.722564        -1.931845
 H         2.902096         0.972295        -1.584597
 H         2.639288        -2.535699        -0.061790
 H         2.889542        -1.889659         1.657577
 H         4.385112         1.736478         1.444879
 H         4.186248         2.134467        -0.433498
 H         2.568729         0.755438         1.844757
