19
Iteration:  1441
 C         0.225399         1.022014        -0.226975
 C         1.467244         0.213993        -0.068607
 C         2.447480        -0.109853        -1.129120
 C         3.313162        -0.408668         0.005576
 C         2.671469        -1.608427         0.537879
 O         1.333215        -1.123050         0.524430
 O         4.670952         0.182963         0.156019
 C         3.993908         1.489406         0.482209
 C         2.695008         0.678282         0.850666
 H        -0.268440         0.822236         0.720507
 H         0.587841         1.972570        -0.420113
 H        -0.423953         0.616357        -0.993916
 H         2.177799        -0.971749        -1.740617
 H         2.883636         0.551475        -1.967838
 H         2.900000        -2.503490        -0.135115
 H         2.828861        -2.036115         1.558995
 H         4.263301         1.992337         1.392215
 H         4.123280         2.121941        -0.487369
 H         2.384375         0.666003         1.865973
