19
Iteration:  1664
 C         0.086501         0.835453        -0.257982
 C         1.533813         0.338823         0.002240
 C         2.446608        -0.051719        -1.182103
 C         3.365864        -0.367014         0.071617
 C         2.686830        -1.594310         0.553200
 O         1.279077        -1.057097         0.427809
 O         4.656507         0.108712         0.170679
 C         4.140069         1.362886         0.439433
 C         2.659714         0.771748         0.889512
 H        -0.167601         1.146529         0.744162
 H         0.019612         1.752480        -0.920744
 H        -0.443658        -0.045578        -0.536651
 H         2.217694        -0.968112        -1.724680
 H         2.768005         0.932408        -1.781768
 H         2.854736        -2.527002        -0.079306
 H         2.953315        -1.738632         1.732196
 H         4.585048         1.902932         1.404035
 H         3.973392         2.114451        -0.446171
 H         2.524954         0.565972         1.936574
