19
Iteration:  3386
 C         0.082893         0.815036        -0.156244
 C         1.481184         0.305975        -0.049349
 C         2.443997         0.025605        -1.222358
 C         3.342049        -0.432332         0.105524
 C         2.608043        -1.667342         0.517800
 O         1.327699        -0.991145         0.586487
 O         4.728196         0.112675         0.112237
 C         4.118841         1.405436         0.403736
 C         2.695323         0.725038         0.844918
 H        -0.384103         1.068871         0.720487
 H         0.151227         1.712643        -0.724941
 H        -0.379128         0.243220        -0.916712
 H         2.126983        -0.777133        -1.926387
 H         2.873510         0.923359        -1.586624
 H         2.576921        -2.564812        -0.091010
 H         2.939467        -1.967364         1.500480
 H         4.697473         1.806944         1.180109
 H         4.123694         2.145258        -0.453713
 H         2.402168         0.846174         1.891524
