19
Iteration:  4943charge 0 multiplicity 1
 C         0.172877         1.080534        -0.080236
 C         1.479677         0.270491        -0.016756
 C         2.419318        -0.143060        -1.236055
 C         3.357302        -0.455726         0.008844
 C         2.689602        -1.697046         0.610547
 O         1.232079        -1.049576         0.515024
 O         4.743413         0.173727         0.095034
 C         3.982907         1.450803         0.453377
 C         2.786922         0.622719         0.806578
 H        -0.398089         1.133323         0.894887
 H         0.319455         2.096864        -0.531398
 H        -0.449871         0.497498        -0.943977
 H         2.305418        -0.785878        -2.163784
 H         2.642781         0.787769        -1.741300
 H         2.648577        -2.631370         0.004436
 H         2.968442        -1.761488         1.677927
 H         4.659675         1.989355         1.082589
 H         3.751052         2.166518        -0.368101
 H         2.571511         0.483272         1.870668
