19
Iteration:  2148
 C         0.135163         1.079700        -0.228928
 C         1.482349         0.234258        -0.071053
 C         2.422756        -0.117111        -1.218930
 C         3.445539        -0.414717         0.096503
 C         2.670752        -1.676733         0.568525
 O         1.328026        -1.139679         0.504119
 O         4.678245         0.214668         0.106894
 C         3.977695         1.477271         0.422320
 C         2.698313         0.656704         0.981534
 H        -0.206191         1.386189         0.793191
 H         0.260703         1.988467        -0.834501
 H        -0.697175         0.532680        -0.862356
 H         2.255354        -1.021725        -1.755343
 H         2.957498         0.707312        -1.871999
 H         2.696270        -2.525322        -0.156311
 H         2.847187        -2.093376         1.648592
 H         4.607643         1.984022         1.215712
 H         3.836166         1.998146        -0.498421
 H         2.640686         0.481208         2.044495
