19
Iteration:  1757
 C         0.109071         0.948563        -0.254864
 C         1.472499         0.261174        -0.025016
 C         2.556445         0.000824        -1.196911
 C         3.343315        -0.398957         0.029747
 C         2.649789        -1.635855         0.651864
 O         1.322937        -1.121689         0.504215
 O         4.733627         0.114628         0.105892
 C         3.976965         1.473985         0.446313
 C         2.658725         0.694322         0.850622
 H        -0.404109         0.836046         0.771581
 H         0.292825         2.024197        -0.253383
 H        -0.550438         0.568743        -1.161819
 H         2.298693        -0.780804        -2.003425
 H         2.874306         0.917259        -1.528491
 H         2.766546        -2.582180         0.023440
 H         2.671137        -1.904777         1.723215
 H         4.600384         1.869213         1.162822
 H         3.983959         2.032417        -0.422827
 H         2.650089         0.512507         2.000843
