19
Iteration:  2862
 C         0.199961         0.975186        -0.048446
 C         1.505903         0.299203        -0.037725
 C         2.514365        -0.191303        -1.276826
 C         3.296892        -0.410181        -0.018059
 C         2.643438        -1.642095         0.644721
 O         1.332404        -1.027275         0.471558
 O         4.643491         0.151753         0.138886
 C         4.011903         1.442086         0.441276
 C         2.708696         0.720046         0.742348
 H        -0.291057         1.376293         0.860863
 H         0.338180         1.868190        -0.595158
 H        -0.554304         0.179268        -0.381027
 H         2.151293        -1.094243        -1.863773
 H         2.702165         0.702046        -1.828457
 H         2.618693        -2.678199         0.179675
 H         3.127962        -1.876644         1.670226
 H         4.494424         1.869292         1.348430
 H         4.012894         2.187135        -0.266515
 H         2.501003         0.672216         1.831362
