19
Iteration:  2727
 C         0.133593         1.086900        -0.093278
 C         1.468727         0.272530        -0.110866
 C         2.404470        -0.140450        -1.212846
 C         3.393941        -0.436979         0.021921
 C         2.727020        -1.678523         0.635962
 O         1.295414        -1.072544         0.480310
 O         4.657070         0.152180         0.212569
 C         3.989750         1.485140         0.365697
 C         2.760348         0.634022         0.784940
 H        -0.070539         1.324393         0.980050
 H         0.256055         2.019246        -0.775440
 H        -0.612901         0.402383        -0.498802
 H         2.162872        -1.040330        -1.770643
 H         2.914273         0.638679        -1.895703
 H         2.818784        -2.668872         0.203066
 H         2.926271        -1.886915         1.693522
 H         4.451956         2.084486         1.039674
 H         4.013353         2.038098        -0.544625
 H         2.652208         0.652058         1.880438
