19
Iteration:   163
 C         0.064216         0.773006        -0.264744
 C         1.466169         0.253750        -0.030602
 C         2.460454         0.109650        -1.179777
 C         3.366068        -0.378954         0.173262
 C         2.669046        -1.705266         0.533337
 O         1.358335        -1.115073         0.551088
 O         4.641452         0.144008        -0.014373
 C         4.105767         1.431320         0.483089
 C         2.672178         0.778648         0.885895
 H        -0.480872         1.056941         0.713870
 H         0.433084         1.793231        -0.561360
 H        -0.660184         0.330833        -0.996196
 H         2.391273        -0.612998        -1.937270
 H         2.906599         1.027013        -1.456785
 H         2.806845        -2.512394        -0.208612
 H         2.913032        -2.096013         1.558975
 H         4.550260         1.644377         1.437750
 H         4.379418         2.258167        -0.280433
 H         2.403211         1.008034         2.030823
