19
Iteration:  3662charge 0 multiplicity 1
 C         0.183837         0.955247        -0.150393
 C         1.481285         0.250676        -0.026814
 C         2.475977        -0.061705        -1.129292
 C         3.383415        -0.407627         0.033430
 C         2.608445        -1.627181         0.635575
 O         1.297441        -1.144953         0.479615
 O         4.652508         0.143545         0.058725
 C         4.068918         1.422258         0.435824
 C         2.655495         0.747913         0.762697
 H        -0.036908         1.437837         0.821445
 H         0.435562         1.920964        -0.599730
 H        -0.696243         0.435110        -0.532513
 H         2.207752        -0.768570        -1.889531
 H         2.883553         0.875223        -1.531869
 H         2.772406        -2.486884         0.041101
 H         2.861598        -1.856408         1.678098
 H         4.610441         1.880296         1.256652
 H         4.247446         2.005844        -0.374069
 H         2.510958         0.727741         1.875274
