19
Iteration:  4709
 C         0.165447         0.938436        -0.134678
 C         1.512705         0.299816        -0.096976
 C         2.434504         0.065751        -1.204345
 C         3.400183        -0.485955         0.032319
 C         2.698320        -1.693991         0.599363
 O         1.309186        -1.012286         0.579843
 O         4.661033         0.058612         0.102319
 C         4.034604         1.433783         0.438106
 C         2.640822         0.686133         0.801818
 H        -0.323935         0.912533         0.921481
 H         0.070130         2.038769        -0.501621
 H        -0.392930         0.348986        -0.873411
 H         2.152504        -0.644759        -1.973279
 H         2.602081         0.973288        -1.859333
 H         2.592282        -2.580262         0.020876
 H         3.164887        -1.965043         1.548154
 H         4.715576         1.996517         1.117587
 H         3.972465         2.142432        -0.359816
 H         2.573633         0.615296         1.915799
