19
Iteration:  3502charge 0 multiplicity 1
 C         0.236688         1.087403        -0.166338
 C         1.476062         0.296501        -0.048840
 C         2.425869        -0.143881        -1.269097
 C         3.343593        -0.368989         0.036637
 C         2.717567        -1.664669         0.577137
 O         1.361053        -1.144576         0.573655
 O         4.643043         0.139968         0.151969
 C         3.961436         1.422256         0.453421
 C         2.665151         0.696968         0.833003
 H        -0.078838         1.576669         0.793587
 H         0.473832         1.986704        -0.738688
 H        -0.470007         0.519009        -0.781962
 H         1.885000        -0.998795        -1.654399
 H         2.602924         0.693440        -1.958377
 H         2.775850        -2.470689        -0.211834
 H         3.138600        -2.111165         1.499123
 H         4.457752         2.065511         1.132683
 H         3.967310         1.863371        -0.441673
 H         2.554114         0.549673         1.862642
