19
Iteration:  3281charge 0 multiplicity 1
 C         0.078227         0.862856        -0.181755
 C         1.500590         0.388853        -0.077355
 C         2.414690        -0.036345        -1.125469
 C         3.388424        -0.389068         0.124296
 C         2.617682        -1.584837         0.545269
 O         1.273884        -1.125992         0.540164
 O         4.715487         0.083563         0.059042
 C         4.134179         1.411165         0.437391
 C         2.737370         0.754140         0.812306
 H        -0.568185         0.655875         0.719408
 H         0.001004         1.987852        -0.439555
 H        -0.503153         0.183850        -0.844545
 H         2.060676        -0.891848        -1.742538
 H         2.930541         0.713352        -1.713628
 H         2.801531        -2.397910        -0.170579
 H         2.827629        -1.917689         1.585366
 H         4.713426         2.014406         1.302170
 H         4.193601         1.990416        -0.484448
 H         2.549435         0.968469         1.880983
