19
Iteration:  3970charge 0 multiplicity 1
 C         0.111697         0.925900        -0.149817
 C         1.458708         0.357624        -0.085729
 C         2.478441        -0.147591        -1.196073
 C         3.322527        -0.400102         0.021255
 C         2.595727        -1.625730         0.527041
 O         1.253951        -1.081160         0.585844
 O         4.700421         0.098754         0.102417
 C         4.135473         1.456801         0.487981
 C         2.769707         0.754914         0.781139
 H        -0.248415         1.090899         0.857076
 H         0.182377         1.852570        -0.696556
 H        -0.565653         0.357243        -0.727564
 H         2.077152        -0.900679        -1.792256
 H         2.989228         0.694760        -1.621652
 H         2.620796        -2.577653         0.000718
 H         2.936974        -1.655078         1.594887
 H         4.596830         1.955153         1.412424
 H         4.202707         2.135633        -0.404658
 H         2.756705         0.413411         1.830741
