19
Iteration:  3843
 C         0.031500         0.864231        -0.186877
 C         1.460060         0.328123        -0.060883
 C         2.346542         0.054358        -1.166504
 C         3.338185        -0.400402         0.035924
 C         2.639652        -1.611070         0.589894
 O         1.277444        -1.004005         0.535859
 O         4.790914         0.049436         0.115778
 C         4.158820         1.384710         0.419469
 C         2.770768         0.691213         0.848180
 H        -0.645909         1.161115         0.618326
 H         0.083812         1.769879        -0.870754
 H        -0.351860        -0.100019        -0.689903
 H         2.133672        -0.721279        -1.977466
 H         2.843976         0.927697        -1.691370
 H         2.946800        -2.618423         0.058934
 H         2.815512        -1.782425         1.672275
 H         4.383441         1.927958         1.344228
 H         4.442660         1.950193        -0.484476
 H         2.597691         0.536629         1.941672
