19
Iteration:  2232
 C         0.123867         0.783896        -0.218991
 C         1.520943         0.361459        -0.040480
 C         2.319467        -0.007925        -1.127489
 C         3.357868        -0.382968         0.018084
 C         2.597082        -1.687784         0.589159
 O         1.305410        -1.039540         0.487447
 O         4.719503         0.108315         0.127304
 C         4.172491         1.442973         0.470254
 C         2.724838         0.787502         0.859858
 H        -0.647543         0.659723         0.536243
 H         0.206081         1.769204        -0.537619
 H        -0.196345         0.192337        -1.055385
 H         1.922871        -0.927421        -1.526735
 H         2.660938         0.693925        -1.941596
 H         2.798546        -2.508557        -0.086307
 H         2.779593        -1.924099         1.607190
 H         4.550173         2.029023         1.238077
 H         4.394799         2.066379        -0.506347
 H         2.623895         0.797223         1.931127
