19
Iteration:   836
 C         0.130879         1.039819        -0.221740
 C         1.439580         0.241177        -0.130410
 C         2.477342        -0.090401        -1.089200
 C         3.408572        -0.385057         0.054156
 C         2.769256        -1.726447         0.521592
 O         1.306334        -1.222720         0.448062
 O         4.685133         0.207788         0.113453
 C         3.969846         1.508568         0.512122
 C         2.653423         0.777640         0.925148
 H        -0.096839         1.390611         0.779660
 H         0.318525         1.927349        -0.818996
 H        -0.689106         0.425230        -0.620752
 H         2.226858        -0.883209        -1.843363
 H         2.676126         0.732911        -1.807116
 H         2.752043        -2.648971        -0.081636
 H         3.046335        -1.967618         1.550687
 H         4.555087         1.882679         1.526339
 H         3.987933         2.066578        -0.531691
 H         2.461569         0.438847         2.097063
