19
Iteration:  4146charge 0 multiplicity 1
 C         0.077412         0.810567        -0.281856
 C         1.547809         0.342022        -0.022052
 C         2.454963         0.028329        -1.151414
 C         3.331920        -0.398192         0.079008
 C         2.668279        -1.675115         0.576278
 O         1.344041        -0.955425         0.659307
 O         4.634492         0.058999         0.014458
 C         4.127746         1.363677         0.440751
 C         2.655874         0.774989         0.873867
 H        -0.475005         1.132721         0.554212
 H         0.219013         1.701948        -0.886747
 H        -0.601775         0.140670        -0.832539
 H         2.210059        -0.533493        -2.043529
 H         2.852596         0.901314        -1.647389
 H         2.462400        -2.478868        -0.252235
 H         3.177014        -2.297429         1.404207
 H         4.625409         1.732052         1.408543
 H         4.253441         2.014071        -0.494567
 H         2.540676         0.588604         1.938717
