19
Iteration:  3312charge 0 multiplicity 1
 C         0.223425         1.018928        -0.079961
 C         1.510808         0.256793        -0.084814
 C         2.484556        -0.104076        -1.281339
 C         3.399673        -0.473541        -0.017951
 C         2.687936        -1.621402         0.597935
 O         1.293162        -1.085710         0.589394
 O         4.604102         0.188740         0.116479
 C         3.977080         1.421776         0.490765
 C         2.680187         0.664155         0.724912
 H        -0.199329         1.144216         0.979179
 H         0.445561         2.130464        -0.431948
 H        -0.521276         0.489395        -0.796164
 H         2.170551        -0.983405        -1.861073
 H         2.886878         0.706516        -1.818355
 H         2.653379        -2.613772         0.034426
 H         2.970984        -1.749906         1.718344
 H         4.431872         1.977458         1.357298
 H         4.120385         2.041659        -0.371698
 H         2.407265         0.764350         1.795543
