19
Iteration:  4881
 C         0.074528         0.860688        -0.168152
 C         1.497207         0.341567        -0.002483
 C         2.361240         0.040091        -1.202690
 C         3.342101        -0.415708         0.015042
 C         2.586849        -1.652360         0.561292
 O         1.296267        -1.024392         0.571892
 O         4.789074         0.090169         0.097339
 C         4.161372         1.381926         0.402230
 C         2.770973         0.694327         0.815192
 H        -0.618708         0.889829         0.667968
 H         0.013424         1.905402        -0.451746
 H        -0.205455         0.284490        -0.950038
 H         2.188502        -0.816122        -1.778428
 H         2.623542         1.022136        -1.511573
 H         2.517653        -2.613477        -0.015243
 H         2.878843        -1.676939         1.625004
 H         4.622048         1.910569         1.294390
 H         3.969513         2.079500        -0.385849
 H         2.410021         0.465483         1.848027
