19
Iteration:  4952
 C         0.207489         1.072851        -0.065199
 C         1.431485         0.300062        -0.074690
 C         2.463957        -0.096678        -1.271959
 C         3.377112        -0.448436        -0.037622
 C         2.682642        -1.661780         0.612196
 O         1.249162        -1.068434         0.520662
 O         4.709744         0.164591         0.089179
 C         4.001811         1.436715         0.440891
 C         2.678836         0.613881         0.878585
 H        -0.191589         1.266897         0.953201
 H         0.419438         2.075815        -0.480961
 H        -0.506458         0.313217        -0.736655
 H         2.243991        -1.077232        -1.843128
 H         2.965742         0.802223        -1.619179
 H         2.662550        -2.660578         0.114062
 H         3.115013        -1.701857         1.638209
 H         4.483591         2.053125         1.204477
 H         3.802706         1.915063        -0.604886
 H         2.826699         0.386115         1.924049
