19
Iteration:  3286charge 0 multiplicity 1
 C         0.056964         0.893591        -0.179093
 C         1.474217         0.401600        -0.100928
 C         2.393275        -0.097692        -1.155546
 C         3.363603        -0.400100         0.149679
 C         2.636835        -1.600819         0.539364
 O         1.308407        -1.102173         0.523834
 O         4.748116         0.085343         0.050814
 C         4.113139         1.427690         0.457595
 C         2.726597         0.759640         0.841169
 H        -0.417035         0.748095         0.785892
 H         0.064057         1.930579        -0.335134
 H        -0.528953         0.255646        -0.837774
 H         2.110287        -0.968769        -1.737954
 H         3.005694         0.683815        -1.671825
 H         2.736038        -2.453920        -0.149973
 H         2.894505        -1.837285         1.571223
 H         4.604670         1.953505         1.194389
 H         4.220845         2.046441        -0.459436
 H         2.519916         0.814654         1.913831
