19
Iteration:  1625charge 0 multiplicity 1
 C         0.116042         0.903724        -0.233242
 C         1.465391         0.250353        -0.126526
 C         2.525558        -0.007571        -1.208855
 C         3.378573        -0.431319         0.030014
 C         2.659269        -1.679595         0.618074
 O         1.290429        -1.043642         0.589514
 O         4.704696         0.192673         0.169575
 C         4.082043         1.400393         0.478000
 C         2.653871         0.736088         0.765226
 H        -0.480997         0.791125         0.713076
 H         0.026634         1.923662        -0.605580
 H        -0.615570         0.249180        -0.803843
 H         2.223078        -0.620995        -2.052107
 H         2.773342         0.984749        -1.581461
 H         2.481534        -2.530079        -0.026334
 H         3.064421        -2.065799         1.471738
 H         4.430808         1.752734         1.399185
 H         4.386851         2.016991        -0.340068
 H         2.510841         0.562685         1.906279
