19
Iteration:  4555charge 0 multiplicity 1
 C         0.119027         0.953109        -0.174761
 C         1.486699         0.268486        -0.061482
 C         2.455484        -0.006867        -1.161005
 C         3.371762        -0.464454        -0.035431
 C         2.675162        -1.690109         0.565871
 O         1.246561        -1.065127         0.633134
 O         4.750456         0.169163         0.096322
 C         4.013564         1.394070         0.421329
 C         2.740542         0.720266         0.785394
 H        -0.545869         0.948904         0.757528
 H         0.324524         2.050034        -0.364009
 H        -0.426084         0.563215        -0.999193
 H         2.023087        -0.690304        -1.949058
 H         2.992198         0.810066        -1.508271
 H         2.477425        -2.638271         0.062909
 H         3.187546        -1.893080         1.544366
 H         4.484707         1.761652         1.332319
 H         3.929644         2.088626        -0.409211
 H         2.544267         0.748727         1.878610
