19
Iteration:  2289charge 0 multiplicity 1
 C         0.279852         1.033267        -0.148991
 C         1.511281         0.255368        -0.096164
 C         2.427501        -0.129411        -1.226380
 C         3.353474        -0.442979         0.012251
 C         2.676353        -1.654850         0.615309
 O         1.265751        -1.148518         0.553432
 O         4.638358         0.189138         0.139328
 C         3.976483         1.478345         0.415015
 C         2.714095         0.703655         0.847400
 H        -0.234469         1.035873         0.789403
 H         0.513617         2.029353        -0.476563
 H        -0.404890         0.609918        -0.965928
 H         2.123758        -0.858874        -1.995748
 H         2.937345         0.706473        -1.859512
 H         2.935955        -2.528139         0.051900
 H         2.931253        -1.796348         1.700832
 H         4.189834         1.942212         1.366273
 H         4.111211         2.215978        -0.515111
 H         2.447427         0.578792         1.897239
