19
Iteration:  2972
 C         0.103062         0.859408        -0.213130
 C         1.484882         0.248135        -0.027553
 C         2.462392         0.035391        -1.198101
 C         3.355135        -0.334802         0.065937
 C         2.665627        -1.567601         0.666371
 O         1.289366        -1.065754         0.585599
 O         4.706354         0.046669        -0.030586
 C         4.135060         1.346930         0.468337
 C         2.613820         0.799331         0.818752
 H        -0.279339         0.741525         0.792132
 H         0.146512         1.956695        -0.496943
 H        -0.468686         0.294048        -1.058193
 H         2.248158        -0.653555        -1.997452
 H         2.918819         0.912233        -1.755520
 H         2.601364        -2.551448         0.111548
 H         2.821731        -1.845548         1.765176
 H         4.791418         1.483267         1.409292
 H         4.273977         2.124255        -0.435594
 H         2.461679         0.712753         1.912373
