19
Iteration:  1669charge 0 multiplicity 1
 C         0.131954         0.848946        -0.261054
 C         1.473811         0.357195        -0.017523
 C         2.441200        -0.037927        -1.179624
 C         3.361532        -0.380152         0.048519
 C         2.663782        -1.625187         0.551804
 O         1.303379        -1.069333         0.456834
 O         4.682617         0.118545         0.185763
 C         4.095703         1.406251         0.450915
 C         2.708852         0.736467         0.854348
 H        -0.252482         1.168266         0.767777
 H         0.122871         1.720267        -0.890662
 H        -0.556691        -0.037204        -0.490443
 H         2.206102        -0.877491        -1.864610
 H         2.758787         0.855466        -1.654437
 H         2.967635        -2.565097         0.107383
 H         2.752694        -1.751976         1.578172
 H         4.641908         1.781476         1.244335
 H         3.910938         2.050320        -0.338515
 H         2.440728         0.713687         1.985115
