19
Iteration:  4101
 C         0.186516         1.025351        -0.125415
 C         1.448442         0.295283        -0.058540
 C         2.406138        -0.049828        -1.211562
 C         3.309858        -0.464818         0.074086
 C         2.689877        -1.726953         0.645212
 O         1.286754        -1.131433         0.495662
 O         4.704194         0.149282         0.131413
 C         4.075123         1.458111         0.372716
 C         2.710864         0.757668         0.762445
 H        -0.263698         1.103785         0.844448
 H         0.426476         2.039024        -0.449273
 H        -0.501604         0.501076        -0.773899
 H         1.974513        -0.839370        -1.809700
 H         2.945048         0.558994        -1.936307
 H         2.842786        -2.749204         0.107478
 H         2.726375        -1.833095         1.792332
 H         4.564478         1.797067         1.360278
 H         4.210226         2.233918        -0.441811
 H         2.585257         0.871784         1.859241
