19
Iteration:  2797charge 0 multiplicity 1
 C         0.143497         0.851591        -0.319336
 C         1.543458         0.395658         0.029441
 C         2.319374         0.025784        -1.150550
 C         3.336201        -0.428870         0.088211
 C         2.632287        -1.605601         0.601403
 O         1.308979        -1.051793         0.568659
 O         4.681462         0.088386         0.043292
 C         4.100530         1.413175         0.392432
 C         2.754385         0.704067         0.906500
 H        -0.339823         0.626499         0.637398
 H         0.128589         1.851975        -0.654646
 H        -0.219970         0.183807        -1.190734
 H         2.143899        -0.979875        -1.719765
 H         2.642125         0.839032        -1.749718
 H         2.621006        -2.619412         0.109940
 H         3.015045        -1.957736         1.638173
 H         4.799472         2.040274         1.089860
 H         3.901070         2.061899        -0.433260
 H         2.791779         0.613212         2.003182
