19
Iteration:  4897
 C         0.049598         0.914962        -0.231703
 C         1.454952         0.309080        -0.012729
 C         2.470645         0.026413        -1.146308
 C         3.381159        -0.445093         0.010805
 C         2.686409        -1.664229         0.550607
 O         1.320061        -1.028518         0.617086
 O         4.646289         0.036928         0.044926
 C         4.085797         1.372511         0.435522
 C         2.724878         0.798396         0.890838
 H        -0.372259         0.744927         0.784997
 H         0.115527         2.028105        -0.314073
 H        -0.499963         0.408495        -1.176084
 H         1.944272        -0.654364        -1.913863
 H         2.969289         0.776186        -1.821030
 H         2.684917        -2.366324        -0.296395
 H         2.978741        -2.033896         1.547206
 H         4.662624         1.876411         1.208584
 H         4.271010         2.073699        -0.444235
 H         2.828952         0.775292         1.969235
