19
Iteration:   316
 C        -0.008095         0.862666        -0.209942
 C         1.453142         0.315963        -0.089536
 C         2.492597        -0.002160        -1.172006
 C         3.313840        -0.364743         0.072139
 C         2.712896        -1.686112         0.546563
 O         1.403123        -1.123764         0.559946
 O         4.700525         0.143728         0.033738
 C         4.123490         1.398601         0.596647
 C         2.636262         0.803427         0.785032
 H        -0.444170         1.116801         0.732075
 H         0.000907         1.771333        -0.881389
 H        -0.620148         0.118336        -0.782739
 H         2.388140        -0.836151        -2.001747
 H         2.707780         0.919078        -1.718911
 H         2.830238        -2.533843        -0.251579
 H         2.963744        -1.973984         1.640563
 H         4.372554         1.585076         1.570638
 H         4.331488         2.314746        -0.008151
 H         2.414025         0.777833         1.950468
