19
Iteration:  4559charge 0 multiplicity 1
 C         0.117346         0.951820        -0.162490
 C         1.464807         0.265532        -0.038798
 C         2.470409         0.011335        -1.208366
 C         3.386940        -0.439387         0.002131
 C         2.646144        -1.694692         0.576563
 O         1.269575        -1.054804         0.636053
 O         4.778313         0.144928         0.071712
 C         4.009371         1.401011         0.419751
 C         2.710340         0.715370         0.823578
 H        -0.580124         0.716761         0.652427
 H         0.270422         1.997436        -0.508232
 H        -0.539803         0.582107        -1.020628
 H         2.078088        -0.657235        -1.975792
 H         2.986360         0.968253        -1.618487
 H         2.409217        -2.696817         0.039783
 H         3.161371        -1.812364         1.581903
 H         4.566049         1.691779         1.342565
 H         4.049951         2.067099        -0.563930
 H         2.460245         0.678573         1.897333
