19
Iteration:  1124
 C         0.159187         0.988497        -0.103486
 C         1.490838         0.255069        -0.108045
 C         2.558803        -0.052896        -1.231589
 C         3.362575        -0.467777         0.118161
 C         2.717705        -1.671418         0.563894
 O         1.278115        -1.122745         0.464385
 O         4.709050         0.226120         0.189574
 C         3.966274         1.468391         0.382342
 C         2.607598         0.654939         0.832774
 H        -0.223684         1.103942         0.954367
 H         0.226109         2.005232        -0.537508
 H        -0.484783         0.418471        -0.814321
 H         2.215900        -1.008457        -1.708146
 H         2.926822         0.808723        -1.809810
 H         2.805949        -2.529019        -0.010276
 H         2.884641        -1.927039         1.594197
 H         4.495784         2.011430         1.093569
 H         3.918182         2.168298        -0.442394
 H         2.374083         0.704853         1.864633
