19
Iteration:  4653
 C         0.230266         1.055008        -0.122392
 C         1.522525         0.302871        -0.071659
 C         2.411416        -0.037870        -1.231523
 C         3.360615        -0.484783         0.091827
 C         2.641434        -1.671074         0.558647
 O         1.334290        -1.132223         0.557011
 O         4.708417         0.169437         0.059372
 C         3.919593         1.414830         0.472931
 C         2.698732         0.697150         0.796393
 H        -0.140632         1.281424         0.928714
 H         0.441847         1.880197        -0.854527
 H        -0.580027         0.465622        -0.529112
 H         1.951152        -0.824787        -1.867361
 H         2.915264         0.759320        -1.731924
 H         2.776263        -2.520259        -0.058234
 H         2.947170        -1.846764         1.584873
 H         4.376739         1.914293         1.333235
 H         3.816150         1.938332        -0.413043
 H         2.687668         0.551841         1.909457
