19
Iteration:  4693
 C         0.219298         0.988145        -0.140339
 C         1.479738         0.255895        -0.006294
 C         2.452156        -0.052885        -1.180610
 C         3.336839        -0.365009         0.052040
 C         2.627218        -1.634228         0.524750
 O         1.309077        -1.146558         0.540809
 O         4.699785         0.108650         0.065607
 C         3.987370         1.402816         0.399170
 C         2.710880         0.762853         0.866140
 H        -0.161234         1.292026         0.860803
 H         0.438637         1.953459        -0.538996
 H        -0.540837         0.437433        -0.737828
 H         2.126725        -0.811043        -1.927772
 H         2.955511         0.788390        -1.639930
 H         2.811534        -2.551402        -0.148849
 H         2.814550        -1.951219         1.574876
 H         4.403818         1.886949         1.368908
 H         4.022817         2.102459        -0.518850
 H         2.512708         0.673972         1.922060
