19
Iteration:  1388charge 0 multiplicity 1
 C         0.153120         0.898286        -0.139625
 C         1.518849         0.333481        -0.099564
 C         2.519490        -0.074007        -1.215936
 C         3.352723        -0.393002         0.032566
 C         2.693390        -1.646682         0.609365
 O         1.247142        -1.067779         0.434757
 O         4.693459         0.145825         0.159878
 C         4.002901         1.399619         0.448692
 C         2.714657         0.742605         0.909977
 H        -0.453561         0.814123         0.808968
 H         0.299280         1.888420        -0.580526
 H        -0.258544         0.223502        -0.936725
 H         1.992155        -0.960333        -1.745740
 H         2.767698         0.907593        -1.778444
 H         2.770594        -2.501442        -0.052422
 H         2.853428        -1.726592         1.709125
 H         4.390981         1.993641         1.230157
 H         3.924004         1.926382        -0.522676
 H         2.494035         0.574428         1.904873
