19
Iteration:  4169
 C         0.102893         0.880723        -0.242425
 C         1.519893         0.389082        -0.058185
 C         2.386160        -0.012657        -1.196265
 C         3.343855        -0.394375         0.050702
 C         2.645902        -1.665280         0.524004
 O         1.213926        -1.132803         0.659670
 O         4.741288         0.074974         0.054049
 C         4.139307         1.467585         0.502386
 C         2.753311         0.790909         0.808518
 H        -0.291132         1.053584         0.729347
 H         0.063493         1.772165        -0.848778
 H        -0.602270         0.201900        -0.699682
 H         2.144937        -0.854525        -1.855647
 H         2.851858         0.661503        -1.881135
 H         2.543552        -2.688879         0.070339
 H         3.165403        -1.928318         1.529536
 H         4.445957         1.840976         1.502354
 H         4.197983         2.182060        -0.390781
 H         2.788671         0.724225         1.858509
