19
Iteration:   586charge 0 multiplicity 1
 C         0.166668         0.855937        -0.246554
 C         1.475822         0.212342        -0.043505
 C         2.484568         0.056359        -1.235371
 C         3.385983        -0.404000         0.062859
 C         2.672840        -1.631370         0.525628
 O         1.375616        -1.085736         0.571763
 O         4.628719         0.144354         0.204505
 C         3.996124         1.413609         0.497778
 C         2.688732         0.739224         0.744296
 H        -0.335418         0.764390         0.767378
 H         0.300741         1.972965        -0.479647
 H        -0.550787         0.258968        -0.918353
 H         2.068309        -0.586491        -2.081374
 H         2.688312         1.063601        -1.498314
 H         2.839777        -2.470214        -0.200979
 H         2.936543        -1.991146         1.545686
 H         4.363134         1.984078         1.384170
 H         3.861334         2.090494        -0.307157
 H         2.602075         0.578330         1.806017
