19
Iteration:  1395
 C         0.160707         0.958861        -0.151576
 C         1.526613         0.331375        -0.087951
 C         2.510121        -0.082510        -1.193574
 C         3.409537        -0.419957         0.075992
 C         2.691001        -1.603597         0.599025
 O         1.280947        -1.084890         0.449951
 O         4.659725         0.174122         0.182338
 C         3.986733         1.379475         0.402503
 C         2.655085         0.684086         0.843632
 H        -0.335212         0.769474         0.772918
 H         0.147879         1.986457        -0.447124
 H        -0.348506         0.352461        -0.878859
 H         2.181796        -0.724185        -1.925041
 H         2.815269         0.742377        -1.839732
 H         2.656221        -2.616205         0.089169
 H         2.948409        -1.852211         1.631863
 H         4.518831         1.873461         1.250877
 H         3.801644         2.075583        -0.495300
 H         2.575330         0.504712         1.964372
