19
Iteration:  3216charge 0 multiplicity 1
 C         0.173682         0.972432        -0.169933
 C         1.464718         0.246553        -0.096302
 C         2.397545        -0.186433        -1.204372
 C         3.358882        -0.440054         0.018275
 C         2.621970        -1.666757         0.550970
 O         1.334968        -1.089442         0.577044
 O         4.658540         0.184706         0.049215
 C         4.096447         1.480123         0.559680
 C         2.744050         0.769914         0.792566
 H        -0.315156         1.243293         0.767527
 H         0.495241         1.889331        -0.631161
 H        -0.527567         0.404116        -0.701220
 H         1.908656        -1.065750        -1.681817
 H         2.817425         0.624863        -1.755193
 H         2.709575        -2.503624        -0.075323
 H         2.846467        -1.804599         1.571975
 H         4.682218         1.921826         1.485394
 H         4.154961         2.322404        -0.124488
 H         2.334240         0.841726         1.806050
