19
Iteration:  3972
 C         0.117925         0.923884        -0.150661
 C         1.456585         0.348384        -0.073060
 C         2.469709        -0.145257        -1.193256
 C         3.332740        -0.395257         0.011851
 C         2.579141        -1.637293         0.526729
 O         1.246970        -1.071148         0.588465
 O         4.715437         0.097847         0.099797
 C         4.149810         1.466493         0.485997
 C         2.772395         0.763106         0.790842
 H        -0.234232         1.029350         0.875846
 H         0.141713         1.835591        -0.776628
 H        -0.579329         0.291418        -0.771914
 H         2.079944        -0.915864        -1.869989
 H         2.970752         0.724444        -1.637096
 H         2.603166        -2.576539         0.060538
 H         2.922429        -1.632255         1.556102
 H         4.542571         1.932989         1.423164
 H         4.180178         2.142718        -0.357293
 H         2.722202         0.363140         1.799729
