19
Iteration:  4303charge 0 multiplicity 1
 C         0.084566         0.823274        -0.224837
 C         1.406155         0.334315        -0.035565
 C         2.456476        -0.047440        -1.169900
 C         3.308663        -0.362649         0.031128
 C         2.670550        -1.547635         0.588393
 O         1.294768        -1.032721         0.601147
 O         4.709890         0.091902         0.007782
 C         4.206325         1.340011         0.438900
 C         2.723355         0.778673         0.873138
 H        -0.294603         1.003122         0.783986
 H         0.148313         1.632853        -0.909122
 H        -0.603000         0.139653        -0.637915
 H         2.227100        -0.873147        -1.884209
 H         2.786812         0.971269        -1.677778
 H         2.759308        -2.447279         0.002997
 H         2.748059        -2.075460         1.536816
 H         4.540688         1.644874         1.426945
 H         4.056157         2.182518        -0.286511
 H         2.574581         0.566677         1.981386
