19
Iteration:  1179charge 0 multiplicity 1
 C         0.071265         0.896298        -0.260932
 C         1.459958         0.295968        -0.038325
 C         2.489888        -0.035520        -1.181516
 C         3.324806        -0.455048        -0.006719
 C         2.689814        -1.660734         0.593309
 O         1.358321        -1.047590         0.502214
 O         4.748369         0.139255         0.136470
 C         3.990698         1.461498         0.541090
 C         2.745230         0.705067         0.856378
 H        -0.519251         1.333952         0.700491
 H         0.076182         1.781086        -0.953281
 H        -0.753444         0.212871        -0.679518
 H         2.174131        -0.833038        -1.919983
 H         2.593935         0.986544        -1.768443
 H         2.833703        -2.509971        -0.049211
 H         2.867880        -1.786823         1.683790
 H         4.470114         1.944996         1.361901
 H         3.898031         2.051894        -0.377863
 H         2.688661         0.370841         1.842244
