19
Iteration:  2759charge 0 multiplicity 1
 C         0.240843         1.020080        -0.077331
 C         1.455746         0.217565        -0.184117
 C         2.486502        -0.151237        -1.227663
 C         3.348732        -0.390848         0.052755
 C         2.655229        -1.668806         0.643680
 O         1.295037        -1.104575         0.591485
 O         4.600385         0.148918         0.116449
 C         4.053519         1.476490         0.420768
 C         2.703762         0.748472         0.741320
 H        -0.132324         0.777199         0.941555
 H         0.297976         2.165956        -0.309907
 H        -0.583375         0.783959        -0.730521
 H         2.550858        -0.982595        -1.912598
 H         2.849189         0.749729        -1.837224
 H         2.760922        -2.553131         0.022253
 H         2.896194        -1.798751         1.670746
 H         4.525785         1.887237         1.253872
 H         4.124878         2.041394        -0.537021
 H         2.335765         0.705992         1.774976
