19
Iteration:  4546charge 0 multiplicity 1
 C         0.172505         0.993001        -0.182968
 C         1.488569         0.309984        -0.019063
 C         2.417361        -0.078839        -1.159885
 C         3.349023        -0.508874        -0.025571
 C         2.703238        -1.672529         0.569121
 O         1.278441        -1.082393         0.603450
 O         4.661952         0.176744         0.110139
 C         4.043188         1.428526         0.447020
 C         2.724551         0.695530         0.757197
 H        -0.299082         1.028936         0.842743
 H         0.402199         2.099745        -0.369193
 H        -0.403323         0.548909        -0.976161
 H         2.177386        -0.850856        -1.964989
 H         2.750859         0.824226        -1.701086
 H         2.781147        -2.562259        -0.190056
 H         2.939879        -2.005140         1.648600
 H         4.458571         2.066316         1.260299
 H         3.962902         2.286102        -0.373576
 H         2.688398         0.559077         1.873905
