19
Iteration:  1136charge 0 multiplicity 1
 C         0.184805         0.973979        -0.116827
 C         1.496697         0.235812        -0.114111
 C         2.499602        -0.111450        -1.188112
 C         3.407017        -0.381998         0.117176
 C         2.637240        -1.704657         0.550301
 O         1.395633        -1.140124         0.463347
 O         4.625424         0.154702         0.192153
 C         3.924177         1.501839         0.431154
 C         2.644084         0.792521         0.787543
 H        -0.138727         1.182362         0.942168
 H         0.429378         1.912538        -0.597480
 H        -0.739366         0.496050        -0.492110
 H         2.313045        -0.812008        -2.049978
 H         3.157288         0.650205        -1.716558
 H         2.719196        -2.430452        -0.188467
 H         2.909737        -2.059505         1.553268
 H         4.322993         1.939565         1.262746
 H         3.945234         2.023842        -0.532702
 H         2.508720         0.699460         1.823205
