19
Iteration:   665
 C         0.144490         1.019697        -0.218244
 C         1.432565         0.257167        -0.102021
 C         2.462402        -0.059253        -1.256588
 C         3.386176        -0.406079         0.001001
 C         2.732251        -1.663140         0.562435
 O         1.392960        -1.133793         0.562471
 O         4.649418         0.184590         0.152700
 C         3.925503         1.443374         0.540948
 C         2.667829         0.631121         0.899451
 H        -0.199539         1.338359         0.799577
 H         0.181884         1.950686        -0.949102
 H        -0.542833         0.361777        -0.877077
 H         2.480860        -0.749177        -2.141491
 H         2.907374         0.882371        -1.722380
 H         2.934916        -2.464757        -0.158686
 H         2.994716        -1.928049         1.621826
 H         4.354701         1.962105         1.350635
 H         3.820268         2.178563        -0.285832
 H         2.662022         0.486170         1.897771
