19
Iteration:  2296charge 0 multiplicity 1
 C         0.239723         1.028534        -0.160919
 C         1.511111         0.306791        -0.046336
 C         2.421291        -0.154247        -1.219992
 C         3.367313        -0.420822         0.050378
 C         2.680257        -1.598096         0.604903
 O         1.271179        -1.181398         0.492986
 O         4.625373         0.204077         0.133686
 C         4.017026         1.485379         0.441977
 C         2.700185         0.664554         0.810240
 H        -0.190439         1.178812         0.854986
 H         0.507208         2.022251        -0.496084
 H        -0.437713         0.617513        -0.849752
 H         2.180704        -1.114953        -1.665799
 H         2.935951         0.558139        -1.891974
 H         2.771609        -2.598639         0.088539
 H         2.902353        -1.771999         1.630270
 H         4.383122         2.042098         1.307740
 H         4.066457         2.081211        -0.545707
 H         2.577168         0.386971         1.873038
