19
Iteration:  1897
 C         0.220588         0.958228        -0.222592
 C         1.499242         0.263147        -0.076739
 C         2.479391        -0.055741        -1.240472
 C         3.360159        -0.417593         0.093017
 C         2.656343        -1.717089         0.549785
 O         1.281990        -1.059107         0.583993
 O         4.711681         0.175214         0.151417
 C         4.004036         1.429690         0.479377
 C         2.650352         0.720074         0.762629
 H        -0.157073         0.766781         0.774545
 H         0.204109         1.968028        -0.291879
 H        -0.471738         0.553149        -0.923524
 H         2.252679        -0.813478        -2.023522
 H         2.707351         0.879358        -1.599576
 H         2.565538        -2.566097        -0.101515
 H         3.101066        -1.996339         1.527509
 H         4.336531         1.980345         1.420069
 H         3.880882         1.998642        -0.445013
 H         2.531388         0.713511         1.853730
