19
Iteration:   263
 C         0.144306         1.019293        -0.144742
 C         1.472231         0.273803        -0.063291
 C         2.432625        -0.044189        -1.149745
 C         3.393772        -0.461525         0.112098
 C         2.757248        -1.707728         0.516693
 O         1.315864        -1.159738         0.432472
 O         4.715324         0.233521         0.147442
 C         3.939117         1.457493         0.405995
 C         2.690133         0.663360         0.888719
 H        -0.161350         1.286277         0.840880
 H         0.310485         1.949157        -0.850715
 H        -0.629520         0.433491        -0.753026
 H         1.989977        -0.801662        -1.664465
 H         2.894791         0.753790        -1.651290
 H         2.842172        -2.566608        -0.214029
 H         2.981057        -2.107450         1.519784
 H         4.445032         2.084915         1.153221
 H         3.729491         2.180654        -0.417449
 H         2.437863         0.707322         2.065999
