19
Iteration:  3129
 C         0.061059         0.915762        -0.189067
 C         1.465599         0.323605        -0.076576
 C         2.498434        -0.035337        -1.180855
 C         3.272482        -0.406392         0.103363
 C         2.625816        -1.706557         0.495291
 O         1.385516        -1.029910         0.645084
 O         4.680396         0.052957         0.129869
 C         4.088251         1.424686         0.377569
 C         2.734802         0.824920         0.807936
 H        -0.389773         0.759060         0.810041
 H        -0.146409         1.914332        -0.558129
 H        -0.493125         0.391132        -0.927234
 H         2.247574        -0.980700        -1.799652
 H         2.885633         0.802875        -1.742554
 H         2.687067        -2.473213        -0.359027
 H         2.831434        -2.141761         1.490554
 H         4.659649         1.969436         1.284480
 H         4.344555         2.095747        -0.446950
 H         2.651085         0.717909         1.899123
