19
Iteration:  4841charge 0 multiplicity 1
 C         0.147295         1.078240        -0.060859
 C         1.468891         0.306502        -0.064122
 C         2.506451        -0.085076        -1.197135
 C         3.399674        -0.444506         0.060655
 C         2.706350        -1.661794         0.568326
 O         1.357070        -1.089436         0.527923
 O         4.627043         0.085502         0.038334
 C         4.029249         1.366512         0.469708
 C         2.607002         0.773354         0.797539
 H        -0.254258         1.175397         0.976326
 H         0.163214         2.010558        -0.691164
 H        -0.668594         0.351749        -0.489598
 H         2.284139        -0.908243        -1.920936
 H         2.856557         0.890450        -1.729719
 H         2.894447        -2.440911        -0.167391
 H         2.853448        -2.094075         1.556951
 H         4.650699         1.778831         1.295366
 H         4.034618         1.884956        -0.522895
 H         2.350156         0.923241         1.838851
