19
Iteration:   647
 C         0.149653         0.859466        -0.205366
 C         1.518668         0.272411        -0.054571
 C         2.532399         0.068047        -1.191151
 C         3.353232        -0.417280         0.021026
 C         2.708618        -1.656136         0.556138
 O         1.272650        -1.152112         0.511334
 O         4.718943         0.181488         0.142679
 C         3.999269         1.436507         0.526688
 C         2.620522         0.715955         0.776442
 H        -0.073596         1.268705         0.796962
 H         0.114428         1.681678        -0.840235
 H        -0.585400         0.170401        -0.465787
 H         2.135944        -0.589641        -1.897388
 H         2.901455         0.950930        -1.772491
 H         2.639283        -2.633182         0.107712
 H         2.963579        -1.764760         1.609318
 H         4.476830         1.895717         1.443858
 H         3.984948         2.165878        -0.384873
 H         2.280292         0.544073         1.882470
