19
Iteration:  2831charge 0 multiplicity 1
 C         0.073827         0.884289        -0.255979
 C         1.401684         0.327675        -0.062639
 C         2.476529        -0.019382        -1.135236
 C         3.340453        -0.369054         0.067718
 C         2.631175        -1.691759         0.580246
 O         1.353457        -1.047340         0.685320
 O         4.770103         0.064503         0.058155
 C         4.117131         1.398051         0.405147
 C         2.654201         0.765121         0.774121
 H        -0.296242         1.027197         0.742239
 H         0.086196         1.888080        -0.714407
 H        -0.671916         0.287738        -0.910307
 H         2.293175        -0.743798        -1.992356
 H         2.596345         0.965195        -1.633453
 H         2.532681        -2.411721        -0.269279
 H         3.187524        -1.939418         1.524388
 H         4.563371         1.611232         1.462008
 H         4.166383         2.153004        -0.350927
 H         2.518128         0.855866         1.866827
