19
Iteration:  2309
 C         0.140135         1.087102        -0.148291
 C         1.444084         0.259823        -0.062354
 C         2.475210        -0.190075        -1.163208
 C         3.377334        -0.404091         0.039841
 C         2.678120        -1.690222         0.657237
 O         1.332473        -1.118458         0.395095
 O         4.731714         0.173049         0.120105
 C         4.011674         1.449421         0.470225
 C         2.672793         0.738056         0.855536
 H        -0.278693         1.276956         0.819250
 H         0.268930         1.951263        -0.689806
 H        -0.619986         0.476902        -0.656335
 H         2.020144        -1.016737        -1.688534
 H         2.626066         0.541788        -2.059505
 H         2.791021        -2.595966         0.051496
 H         2.915615        -1.828887         1.699406
 H         4.735873         1.919774         1.074602
 H         3.663204         2.212783        -0.433866
 H         2.552445         0.696703         1.947328
