19
Iteration:  1688
 C         0.095012         0.973105        -0.236800
 C         1.509267         0.243393        -0.065358
 C         2.500295         0.022585        -1.256852
 C         3.401644        -0.459169         0.071275
 C         2.648633        -1.711766         0.634920
 O         1.296488        -1.117195         0.550348
 O         4.707611         0.133525         0.147165
 C         4.015337         1.486996         0.461778
 C         2.660767         0.731603         0.796933
 H        -0.255923         1.313615         0.772940
 H         0.296297         1.904249        -0.854313
 H        -0.627822         0.235810        -0.703194
 H         2.201581        -0.693342        -1.992519
 H         2.986899         1.056789        -1.632952
 H         2.548381        -2.561892        -0.078762
 H         3.171161        -2.052007         1.664641
 H         4.252269         2.074320         1.446861
 H         4.080891         2.094998        -0.453259
 H         2.598107         0.431680         1.897372
