19
Iteration:  4691charge 0 multiplicity 1
 C         0.213249         0.996053        -0.125568
 C         1.472012         0.241789        -0.004211
 C         2.459188        -0.058522        -1.166538
 C         3.338280        -0.366430         0.065439
 C         2.629211        -1.642499         0.508634
 O         1.298270        -1.152561         0.534909
 O         4.688789         0.121107         0.058755
 C         4.000735         1.391417         0.416069
 C         2.717118         0.774217         0.852807
 H        -0.151010         1.374451         0.771011
 H         0.438803         1.931840        -0.539568
 H        -0.528377         0.463445        -0.763673
 H         2.136939        -0.802161        -1.879157
 H         3.006614         0.754720        -1.748336
 H         2.828869        -2.578605        -0.117698
 H         2.846748        -1.933306         1.566073
 H         4.354703         1.969854         1.285007
 H         4.001275         2.094634        -0.455335
 H         2.601577         0.700651         1.919888
