19
Iteration:  3193
 C         0.264139         1.079088        -0.094257
 C         1.494888         0.259137        -0.120301
 C         2.516178        -0.128589        -1.262755
 C         3.349887        -0.400082         0.058869
 C         2.720720        -1.695933         0.685609
 O         1.257908        -1.118591         0.513108
 O         4.655395         0.196740        -0.017188
 C         3.946326         1.388055         0.450220
 C         2.626243         0.692117         0.855975
 H        -0.065054         1.327904         0.910962
 H         0.475904         2.029424        -0.613183
 H        -0.495244         0.485742        -0.488606
 H         2.246830        -1.041498        -1.797295
 H         3.037346         0.645353        -1.714992
 H         2.832310        -2.565981         0.121422
 H         2.873400        -1.726619         1.721606
 H         4.270286         1.918336         1.423332
 H         4.053302         2.226959        -0.221565
 H         2.422205         0.630962         1.929566
