19
Iteration:  2878charge 0 multiplicity 1
 C         0.218193         1.018736        -0.079441
 C         1.507078         0.301417        -0.084382
 C         2.393377        -0.090386        -1.209496
 C         3.450527        -0.475361         0.027787
 C         2.668991        -1.597307         0.665461
 O         1.282629        -1.119992         0.420615
 O         4.716989         0.147681         0.121912
 C         3.932588         1.443143         0.407783
 C         2.678909         0.682704         0.843221
 H         0.074842         1.271958         0.972131
 H         0.209629         1.991826        -0.696243
 H        -0.593795         0.455774        -0.451183
 H         1.988715        -0.925648        -1.750851
 H         2.907831         0.528626        -1.995201
 H         2.792094        -2.576331         0.227349
 H         2.776593        -1.588817         1.721624
 H         4.432325         1.987787         1.235933
 H         3.861784         1.966463        -0.635541
 H         2.650011         0.557553         1.932327
