19
Iteration:  3482charge 0 multiplicity 1
 C         0.286807         1.078700        -0.168935
 C         1.505685         0.214430        -0.025589
 C         2.448075        -0.084689        -1.129733
 C         3.388943        -0.514285         0.028114
 C         2.673205        -1.721062         0.533813
 O         1.260430        -1.087915         0.554288
 O         4.685310         0.158268         0.117222
 C         3.868890         1.519621         0.362462
 C         2.743830         0.667873         0.853840
 H        -0.168710         1.326404         0.855737
 H         0.544700         2.000468        -0.702227
 H        -0.450837         0.656061        -0.901269
 H         2.222084        -0.946253        -1.863144
 H         2.827818         0.852548        -1.631611
 H         2.759924        -2.642530        -0.028342
 H         2.859547        -1.886887         1.555627
 H         4.314676         2.079281         1.159389
 H         3.585154         2.216406        -0.462903
 H         2.677145         0.794505         1.925423
