19
Iteration:  4255
 C         0.187344         1.000987        -0.149845
 C         1.504548         0.311084         0.009559
 C         2.386365        -0.106619        -1.239542
 C         3.443211        -0.397431         0.057102
 C         2.692626        -1.619920         0.540464
 O         1.284876        -1.068042         0.574711
 O         4.686064         0.106795         0.111838
 C         3.970515         1.432932         0.412116
 C         2.717581         0.710964         0.830343
 H        -0.419516         0.848598         0.730230
 H         0.234436         2.041232        -0.491801
 H        -0.332014         0.427358        -0.961055
 H         2.080379        -0.998257        -1.776534
 H         2.842470         0.605414        -1.837209
 H         2.630666        -2.512530        -0.035728
 H         2.941993        -1.922333         1.532691
 H         4.640298         1.931109         1.135770
 H         3.778597         1.964256        -0.563973
 H         2.532018         0.524230         1.861380
