19
Iteration:   405charge 0 multiplicity 1
 C         0.218473         0.974314        -0.168934
 C         1.491415         0.200867        -0.016117
 C         2.457150        -0.166732        -1.240529
 C         3.332342        -0.405090         0.062516
 C         2.767325        -1.701400         0.552622
 O         1.350297        -1.112193         0.437336
 O         4.698042         0.210390         0.130166
 C         3.936582         1.495535         0.516446
 C         2.611488         0.777061         0.845490
 H        -0.267368         1.051212         0.764314
 H         0.636737         2.011137        -0.430592
 H        -0.432768         0.705049        -1.015286
 H         1.769909        -1.001336        -1.670098
 H         2.658303         0.750719        -1.788666
 H         2.993091        -2.513915        -0.252894
 H         2.942394        -2.073871         1.627113
 H         4.240453         1.988054         1.384410
 H         3.883993         2.238582        -0.243848
 H         2.317629         0.685966         2.021115
