19
Iteration:  1971
 C         0.099354         0.953982        -0.194062
 C         1.466268         0.293218        -0.162134
 C         2.503268        -0.000157        -1.179685
 C         3.375171        -0.432623         0.016152
 C         2.721130        -1.666409         0.603877
 O         1.267651        -1.071218         0.562976
 O         4.676654         0.135580         0.113491
 C         4.021378         1.405568         0.486396
 C         2.714041         0.711995         0.836576
 H        -0.413031         1.063986         0.807976
 H         0.020020         1.952179        -0.713688
 H        -0.557470         0.287371        -0.780785
 H         2.418722        -0.843473        -1.940180
 H         2.875749         0.867997        -1.596169
 H         2.843094        -2.633146         0.055048
 H         2.937471        -1.949304         1.651201
 H         4.607612         1.775154         1.390219
 H         3.992749         2.138393        -0.331350
 H         2.646022         0.634923         1.844019
