19
Iteration:  4325
 C         0.096927         0.936076        -0.133359
 C         1.497326         0.374045        -0.048998
 C         2.422467        -0.086725        -1.253422
 C         3.327841        -0.486850         0.041989
 C         2.656753        -1.670306         0.572785
 O         1.333415        -1.044268         0.542459
 O         4.685265         0.065794         0.077486
 C         4.089066         1.505954         0.487739
 C         2.770570         0.764450         0.835829
 H        -0.498035         1.087772         0.760782
 H         0.005633         1.635611        -0.940322
 H        -0.403144         0.117358        -0.584567
 H         1.911096        -0.900386        -1.826192
 H         2.655991         0.898614        -1.833225
 H         2.685190        -2.663677         0.162795
 H         3.063385        -1.970526         1.568140
 H         4.553246         1.987426         1.384747
 H         4.160225         2.052807        -0.492255
 H         2.529360         0.882156         1.946268
