19
Iteration:  2570charge 0 multiplicity 1
 C         0.258632         1.009881        -0.183102
 C         1.543332         0.219758        -0.063507
 C         2.445655        -0.115812        -1.201195
 C         3.325215        -0.436085         0.027613
 C         2.633332        -1.651622         0.599773
 O         1.245388        -1.081587         0.607148
 O         4.724709         0.148790         0.151022
 C         3.955155         1.503630         0.408386
 C         2.715416         0.708518         0.777006
 H        -0.192885         1.018716         0.842750
 H         0.483248         1.956604        -0.603394
 H        -0.490434         0.510639        -0.903697
 H         2.076691        -0.886999        -1.908804
 H         2.831487         0.692033        -1.758572
 H         2.776868        -2.502418        -0.059966
 H         3.081781        -1.865487         1.530834
 H         4.427278         2.107082         1.141755
 H         3.738549         2.015308        -0.510463
 H         2.513435         0.528913         1.821170
