19
Iteration:  4375
 C         0.247862         1.086671        -0.082665
 C         1.489357         0.246734        -0.017036
 C         2.452772        -0.111296        -1.191431
 C         3.361227        -0.445943         0.094099
 C         2.663342        -1.697686         0.607357
 O         1.284447        -1.152497         0.518346
 O         4.700394         0.136941         0.087497
 C         3.930472         1.494000         0.362402
 C         2.656898         0.773676         0.770602
 H        -0.291591         1.049170         0.874471
 H         0.539742         2.079590        -0.470596
 H        -0.543816         0.700243        -0.863319
 H         2.148018        -0.961743        -1.797949
 H         2.902381         0.648825        -1.820400
 H         2.864521        -2.505055        -0.163753
 H         2.971827        -2.057942         1.600195
 H         4.540815         1.880125         1.212418
 H         4.081506         2.153368        -0.483429
 H         2.689958         0.615844         1.796607
