19
Iteration:  3262charge 0 multiplicity 1
 C         0.112741         0.777688        -0.252656
 C         1.479942         0.318341         0.045208
 C         2.443003         0.091947        -1.205876
 C         3.273291        -0.401518         0.043345
 C         2.621279        -1.713435         0.575444
 O         1.310965        -1.039619         0.572673
 O         4.699887         0.046153         0.117094
 C         4.125223         1.405948         0.337482
 C         2.718830         0.870225         0.882138
 H        -0.562952         0.662507         0.593790
 H         0.226686         1.781405        -0.433914
 H        -0.287332         0.047849        -0.905991
 H         2.298061        -0.672009        -2.005304
 H         2.870772         1.135195        -1.422199
 H         2.462903        -2.603413        -0.005956
 H         2.996698        -1.824884         1.553299
 H         4.698356         1.966498         1.142464
 H         4.350706         2.085540        -0.515297
 H         2.765731         0.636885         1.960213
