19
Iteration:  2175
 C         0.226564         1.016944        -0.126317
 C         1.535081         0.251356        -0.072327
 C         2.410714        -0.126955        -1.226212
 C         3.403960        -0.454541        -0.012027
 C         2.677996        -1.667794         0.613056
 O         1.292733        -1.129432         0.513052
 O         4.666652         0.226587         0.166106
 C         3.955605         1.439279         0.496921
 C         2.672923         0.765270         0.760428
 H        -0.079679         1.434095         0.821497
 H         0.252842         1.797928        -0.910108
 H        -0.437201         0.386307        -0.577313
 H         2.148681        -1.040105        -1.861466
 H         2.817739         0.671779        -1.736823
 H         2.760227        -2.451918        -0.165947
 H         2.821211        -2.118544         1.553471
 H         4.338576         1.852269         1.471140
 H         4.142932         2.055990        -0.452846
 H         2.577954         0.686408         1.887359
