19
Iteration:  3727charge 0 multiplicity 1
 C         0.099416         0.866710        -0.209341
 C         1.489536         0.344438        -0.058759
 C         2.481054        -0.014576        -1.202641
 C         3.396396        -0.434104         0.084851
 C         2.596079        -1.625116         0.585646
 O         1.247772        -1.119205         0.616574
 O         4.712312         0.085052         0.040959
 C         4.148643         1.444648         0.455642
 C         2.713284         0.793538         0.828520
 H        -0.546714         0.880067         0.741936
 H         0.222079         1.982001        -0.470324
 H        -0.406679         0.247608        -0.997626
 H         2.074681        -0.705686        -2.002632
 H         2.884661         0.918604        -1.686674
 H         2.634403        -2.296844        -0.235267
 H         2.644644        -2.197116         1.522947
 H         4.597325         1.910812         1.357308
 H         4.091489         2.125766        -0.427567
 H         2.640996         0.682281         1.969597
