19
Iteration:  4858
 C         0.130303         0.883983        -0.105297
 C         1.489068         0.311504        -0.075198
 C         2.436569        -0.002686        -1.233528
 C         3.296773        -0.404552         0.017146
 C         2.639786        -1.656151         0.585857
 O         1.283300        -1.050038         0.518477
 O         4.714243         0.083380         0.105643
 C         4.076972         1.439584         0.408065
 C         2.767076         0.724509         0.826746
 H        -0.215515         1.164586         0.899262
 H         0.221318         1.899705        -0.468729
 H        -0.612388         0.381851        -0.612788
 H         2.021390        -0.842669        -1.769829
 H         2.925025         0.849459        -1.604803
 H         2.450430        -2.627216         0.070242
 H         3.020154        -1.718279         1.629640
 H         4.594953         1.694158         1.351306
 H         4.158197         2.184527        -0.384279
 H         2.725715         0.435531         1.908532
