19
Iteration:  1620charge 0 multiplicity 1
 C         0.148151         0.890501        -0.217762
 C         1.401888         0.247482        -0.124250
 C         2.547565        -0.011359        -1.228666
 C         3.381331        -0.407214        -0.015339
 C         2.651327        -1.673069         0.607017
 O         1.283474        -1.040830         0.607154
 O         4.712752         0.177751         0.174488
 C         4.033633         1.419512         0.484999
 C         2.670475         0.709997         0.788574
 H        -0.436665         0.829724         0.692395
 H         0.217233         1.961714        -0.560801
 H        -0.451933         0.295556        -0.903375
 H         2.144303        -0.729450        -1.983006
 H         2.909413         1.002106        -1.656856
 H         2.570898        -2.546884        -0.089321
 H         3.023238        -2.086939         1.677040
 H         4.547109         1.795231         1.463651
 H         4.281349         2.081664        -0.409442
 H         2.531141         0.608780         1.827647
