19
Iteration:   255
 C         0.173080         0.988882        -0.113749
 C         1.474518         0.262648        -0.070184
 C         2.469003        -0.107253        -1.137987
 C         3.299324        -0.425570         0.144940
 C         2.764588        -1.740334         0.498996
 O         1.316554        -1.161941         0.401210
 O         4.695803         0.202606         0.122288
 C         3.950039         1.484108         0.402219
 C         2.680145         0.739854         0.917672
 H        -0.204223         1.280534         0.857205
 H         0.558530         1.967542        -0.535037
 H        -0.652282         0.570138        -0.704468
 H         2.247568        -0.849218        -1.929264
 H         2.802274         0.914807        -1.441632
 H         3.058159        -2.446431        -0.219061
 H         2.909141        -2.088512         1.470361
 H         4.501074         2.208841         1.182531
 H         3.786563         1.975899        -0.565582
 H         2.355340         0.890175         1.901629
