19
Iteration:   321
 C        -0.024676         0.864087        -0.195046
 C         1.457961         0.327666        -0.060525
 C         2.497862        -0.026838        -1.191531
 C         3.297804        -0.382974         0.083029
 C         2.700038        -1.655062         0.537847
 O         1.399946        -1.165063         0.525608
 O         4.695938         0.129524         0.045731
 C         4.140213         1.423020         0.574292
 C         2.657700         0.847578         0.806156
 H        -0.691406         1.094968         0.698006
 H         0.004869         1.768767        -0.831815
 H        -0.520391         0.097812        -0.794659
 H         2.345127        -0.767460        -1.900865
 H         2.946327         0.797220        -1.790462
 H         2.726344        -2.483668        -0.121006
 H         3.099759        -1.899215         1.487820
 H         4.521234         1.478266         1.693530
 H         4.143419         2.360667         0.018899
 H         2.459507         0.860720         1.842696
