19
Iteration:  2439
 C         0.218683         1.056769        -0.119593
 C         1.516243         0.338378        -0.129781
 C         2.408376        -0.131432        -1.249963
 C         3.438050        -0.452438         0.079989
 C         2.669594        -1.731874         0.649895
 O         1.279762        -1.122196         0.528633
 O         4.660413         0.235391         0.160395
 C         3.954419         1.473335         0.386587
 C         2.676572         0.646089         0.808245
 H        -0.424431         1.049070         0.813154
 H         0.548359         2.080002        -0.212610
 H        -0.400861         0.874898        -1.074037
 H         2.104165        -1.086923        -1.684149
 H         3.023194         0.478177        -1.980723
 H         2.886409        -2.658202        -0.002035
 H         2.843699        -1.874788         1.709308
 H         4.324332         2.103881         1.122906
 H         4.122988         1.878801        -0.604303
 H         2.631138         0.469406         1.881814
