19
Iteration:  4794charge 0 multiplicity 1
 C         0.193594         1.031276        -0.170235
 C         1.478248         0.279868        -0.010394
 C         2.390724        -0.044010        -1.229942
 C         3.380856        -0.481109        -0.010635
 C         2.709004        -1.682660         0.583679
 O         1.236197        -1.043917         0.550334
 O         4.762072         0.164186         0.087396
 C         3.962616         1.401704         0.388689
 C         2.732541         0.665740         0.922517
 H        -0.254828         1.170072         0.862390
 H         0.600481         1.937656        -0.702161
 H        -0.586164         0.585907        -0.708770
 H         1.971057        -0.800235        -1.948513
 H         2.847956         0.847856        -1.732711
 H         2.730387        -2.606050        -0.075986
 H         3.117633        -1.875991         1.608847
 H         4.389408         1.888388         1.355363
 H         3.575378         2.033130        -0.464962
 H         2.754899         0.355156         2.014548
