19
Iteration:  2567
 C         0.253181         0.991940        -0.195435
 C         1.534138         0.239491        -0.052125
 C         2.445029        -0.125902        -1.205135
 C         3.335016        -0.435474         0.049545
 C         2.648059        -1.627525         0.575384
 O         1.258846        -1.082941         0.624966
 O         4.717966         0.144074         0.137458
 C         3.947994         1.462746         0.428383
 C         2.707641         0.703698         0.743750
 H        -0.265884         1.119093         0.776873
 H         0.403077         1.960477        -0.626068
 H        -0.522184         0.595181        -0.836297
 H         2.124455        -0.846491        -1.900597
 H         2.881287         0.761464        -1.729297
 H         2.725441        -2.532746         0.002521
 H         3.104474        -1.862140         1.527131
 H         4.450599         2.158106         1.241945
 H         3.773260         2.080684        -0.495506
 H         2.532545         0.586175         1.808934
