19
Iteration:  4795charge 0 multiplicity 1
 C         0.193868         1.039786        -0.165499
 C         1.485979         0.265548        -0.004782
 C         2.386895        -0.056125        -1.228356
 C         3.385457        -0.478838        -0.008563
 C         2.707619        -1.682236         0.585102
 O         1.239499        -1.044101         0.543052
 O         4.754647         0.170564         0.092728
 C         3.964805         1.401279         0.386979
 C         2.733511         0.668104         0.920428
 H        -0.259761         1.184544         0.874405
 H         0.608687         1.934931        -0.729808
 H        -0.607503         0.578306        -0.724198
 H         1.960413        -0.759354        -1.973217
 H         2.837149         0.856131        -1.758848
 H         2.670329        -2.585208        -0.062023
 H         3.118940        -1.906779         1.597401
 H         4.407907         1.903478         1.341255
 H         3.588427         2.057291        -0.460872
 H         2.761330         0.332603         1.996307
