19
Iteration:  1722charge 0 multiplicity 1
 C         0.273277         1.002427        -0.234875
 C         1.500183         0.259472        -0.020832
 C         2.449989        -0.172023        -1.242781
 C         3.386195        -0.382762         0.083280
 C         2.669190        -1.683369         0.576617
 O         1.333397        -1.100699         0.496665
 O         4.652899         0.162275         0.120037
 C         3.960493         1.510914         0.503445
 C         2.632380         0.732905         0.839756
 H        -0.195033         0.989201         0.808908
 H         0.555412         2.041756        -0.387153
 H        -0.579345         0.700729        -0.921207
 H         2.085084        -1.032021        -1.855909
 H         2.818723         0.600935        -1.958270
 H         2.753772        -2.528097        -0.151549
 H         2.985123        -2.130266         1.613890
 H         4.322378         2.039588         1.409303
 H         3.861293         2.163410        -0.340931
 H         2.441386         0.469355         1.956160
