19
Iteration:  3529
 C         0.107691         0.946263        -0.132192
 C         1.439877         0.259861        -0.066666
 C         2.529776        -0.049220        -1.212985
 C         3.354618        -0.400892         0.024116
 C         2.678424        -1.676158         0.642539
 O         1.265785        -1.064553         0.553968
 O         4.722388         0.067199         0.060827
 C         4.076664         1.478935         0.490590
 C         2.655894         0.745594         0.749292
 H        -0.269238         1.210930         0.867012
 H         0.169246         1.857597        -0.815422
 H        -0.584891         0.312059        -0.730940
 H         2.048726        -0.779158        -1.953346
 H         2.879827         0.922430        -1.647134
 H         2.617324        -2.528914        -0.001823
 H         3.022825        -1.973438         1.634391
 H         4.464588         1.864557         1.504066
 H         4.387832         2.206070        -0.451972
 H         2.625506         0.719137         1.916853
