19
Iteration:   315
 C        -0.001276         0.861841        -0.219173
 C         1.451031         0.312271        -0.095367
 C         2.489113         0.002332        -1.168361
 C         3.323367        -0.360758         0.067820
 C         2.717146        -1.692456         0.548075
 O         1.399131        -1.114503         0.566967
 O         4.699332         0.147750         0.032896
 C         4.116584         1.393034         0.597066
 C         2.631940         0.793771         0.787115
 H        -0.396469         1.121021         0.761408
 H         0.003967         1.743967        -0.863500
 H        -0.632151         0.134751        -0.761593
 H         2.378245        -0.865938        -2.018720
 H         2.682701         0.972409        -1.704206
 H         2.852198        -2.521364        -0.245568
 H         2.935735        -1.991801         1.643136
 H         4.371517         1.615197         1.586326
 H         4.375400         2.295548        -0.021725
 H         2.410740         0.754405         1.915284
