19
Iteration:  4753charge 0 multiplicity 1
 C         0.095084         0.851516        -0.154562
 C         1.482193         0.266385        -0.041860
 C         2.382798        -0.013265        -1.165948
 C         3.281069        -0.370444         0.074052
 C         2.699803        -1.699666         0.529445
 O         1.256765        -1.027526         0.550310
 O         4.708856         0.093301         0.042391
 C         4.161598         1.392573         0.489994
 C         2.761710         0.825889         0.806043
 H        -0.446076         0.594060         0.859646
 H         0.318980         1.978955        -0.340280
 H        -0.561735         0.556406        -1.027188
 H         2.130478        -0.806803        -1.852164
 H         2.847119         0.743104        -1.904736
 H         2.802901        -2.575489        -0.063884
 H         2.702602        -1.915243         1.594304
 H         4.726529         1.831185         1.361572
 H         4.450803         2.074774        -0.346748
 H         2.494180         0.940678         1.885806
