19
Iteration:  1759
 C         0.108345         0.940022        -0.246308
 C         1.473392         0.237612        -0.057775
 C         2.557440         0.018828        -1.208548
 C         3.338345        -0.396807         0.031094
 C         2.646731        -1.623964         0.649894
 O         1.322819        -1.110142         0.516041
 O         4.730634         0.102116         0.108524
 C         3.970391         1.469181         0.438025
 C         2.667223         0.701399         0.873994
 H        -0.431714         0.803734         0.737756
 H         0.312005         2.048506        -0.267627
 H        -0.502957         0.516103        -1.112856
 H         2.331647        -0.776307        -1.938809
 H         2.839805         1.014244        -1.514602
 H         2.830875        -2.579434         0.072717
 H         2.623676        -1.952148         1.673166
 H         4.614826         1.794783         1.196927
 H         3.993801         2.078057        -0.469017
 H         2.679688         0.534009         1.959564
