19
Iteration:   938charge 0 multiplicity 1
 C         0.137047         0.892698        -0.298235
 C         1.469987         0.309998        -0.014610
 C         2.524655         0.026513        -1.251812
 C         3.343145        -0.380372         0.023635
 C         2.676266        -1.691480         0.585177
 O         1.378938        -1.132624         0.596826
 O         4.634819         0.144622         0.098203
 C         3.979146         1.467141         0.513866
 C         2.686222         0.708752         0.877663
 H        -0.426633         0.820629         0.592419
 H         0.295016         1.958808        -0.492183
 H        -0.400863         0.403158        -1.089601
 H         2.222631        -0.794727        -1.915560
 H         2.776629         0.931076        -1.820874
 H         2.770980        -2.523038        -0.157288
 H         2.974317        -2.066758         1.630735
 H         4.501524         1.844585         1.396801
 H         3.955237         2.308237        -0.304843
 H         2.602312         0.436892         1.911688
