19
Iteration:  3307charge 0 multiplicity 1
 C         0.157943         1.029332        -0.090846
 C         1.528357         0.243502        -0.086537
 C         2.505997        -0.112829        -1.272903
 C         3.393615        -0.451202        -0.034987
 C         2.711681        -1.691256         0.633239
 O         1.309411        -1.036207         0.558376
 O         4.604391         0.168458         0.115384
 C         4.003637         1.413443         0.491760
 C         2.671761         0.719283         0.758422
 H        -0.405329         1.040218         0.814121
 H         0.377018         1.990717        -0.353701
 H        -0.580965         0.491115        -0.611048
 H         2.113876        -1.007395        -1.765778
 H         2.847072         0.727541        -1.968724
 H         2.664148        -2.558239         0.005799
 H         2.862061        -1.871741         1.656338
 H         4.541188         1.895979         1.300747
 H         4.058448         2.150566        -0.377997
 H         2.515079         0.731644         1.836430
