19
Iteration:  2229charge 0 multiplicity 1
 C         0.112250         0.770521        -0.210671
 C         1.509620         0.357177        -0.042331
 C         2.349831         0.002985        -1.148977
 C         3.327937        -0.378900         0.024376
 C         2.577649        -1.661002         0.589770
 O         1.331846        -1.036544         0.488159
 O         4.734065         0.114829         0.134120
 C         4.168650         1.426671         0.442805
 C         2.713611         0.760431         0.850997
 H        -0.631037         0.700752         0.591619
 H         0.204828         1.823833        -0.604289
 H        -0.190311         0.212186        -1.035853
 H         1.838959        -0.932271        -1.518395
 H         2.628403         0.716176        -1.821224
 H         2.872780        -2.551688        -0.049724
 H         2.761280        -1.915938         1.624876
 H         4.597640         1.970847         1.386820
 H         4.380649         2.049982        -0.477021
 H         2.658358         0.852512         1.971733
