19
Iteration:  4519charge 0 multiplicity 1
 C         0.234153         1.042635        -0.112660
 C         1.468961         0.291539        -0.035650
 C         2.425473        -0.126097        -1.199491
 C         3.362976        -0.494171         0.043995
 C         2.730070        -1.667144         0.546118
 O         1.296587        -1.137721         0.502829
 O         4.714660         0.153133         0.064806
 C         3.954689         1.393876         0.441690
 C         2.643844         0.811127         0.893866
 H        -0.064103         1.302288         0.931389
 H         0.670512         1.855000        -0.695589
 H        -0.711786         0.781373        -0.696359
 H         2.132154        -1.009176        -1.734128
 H         2.820425         0.578350        -1.983507
 H         2.804971        -2.469191        -0.147458
 H         2.984090        -1.801136         1.575393
 H         4.458069         2.011524         1.176375
 H         3.741254         2.099191        -0.303942
 H         2.431332         0.887417         1.956995
