19
Iteration:  4160charge 0 multiplicity 1
 C         0.113709         0.889216        -0.267243
 C         1.478043         0.388550        -0.048102
 C         2.453247         0.017592        -1.181447
 C         3.323410        -0.432579         0.024286
 C         2.588195        -1.655572         0.514628
 O         1.317098        -1.118101         0.717226
 O         4.679648         0.089806         0.045197
 C         4.146127         1.389489         0.483173
 C         2.738849         0.818841         0.813463
 H        -0.406112         0.956049         0.726454
 H        -0.001241         1.681678        -1.009029
 H        -0.339299        -0.019678        -0.739958
 H         2.153737        -0.838395        -1.852633
 H         2.885281         0.941560        -1.618464
 H         2.698128        -2.622171        -0.227206
 H         2.870372        -1.945239         1.614786
 H         4.726149         1.710939         1.329971
 H         4.106052         2.217968        -0.268209
 H         2.548854         0.895187         1.880785
