19
Iteration:  2974
 C         0.112210         0.857596        -0.221345
 C         1.482761         0.237535        -0.040298
 C         2.470144         0.048753        -1.201416
 C         3.339021        -0.333134         0.074988
 C         2.656499        -1.559108         0.672430
 O         1.305854        -1.083121         0.577348
 O         4.690538         0.041350        -0.029830
 C         4.149727         1.355586         0.457431
 C         2.620163         0.805071         0.832851
 H        -0.291447         0.808357         0.763981
 H         0.178771         1.986435        -0.422937
 H        -0.516259         0.308045        -0.947457
 H         2.240287        -0.695079        -1.936839
 H         2.905702         0.909449        -1.794944
 H         2.583568        -2.562913         0.118453
 H         2.868277        -1.854323         1.726567
 H         4.797114         1.509534         1.390597
 H         4.219466         2.050683        -0.346840
 H         2.393773         0.770195         1.886356
