19
Iteration:  4299
 C         0.076919         0.847428        -0.202727
 C         1.424240         0.275890        -0.039753
 C         2.479882        -0.029619        -1.184392
 C         3.307917        -0.378003         0.048816
 C         2.655328        -1.554565         0.584410
 O         1.284063        -1.023368         0.613514
 O         4.737196         0.061199        -0.025111
 C         4.161870         1.362876         0.469241
 C         2.721046         0.783123         0.870557
 H        -0.475641         1.106729         0.696966
 H         0.095205         1.699851        -0.893541
 H        -0.536225         0.027687        -0.756502
 H         2.308914        -0.794128        -1.901677
 H         2.643723         0.926709        -1.507736
 H         2.762840        -2.412700        -0.104324
 H         2.948648        -1.918466         1.580512
 H         4.498120         1.684382         1.472960
 H         4.193577         2.163564        -0.357296
 H         2.584978         0.736410         1.898085
