19
Iteration:  2260
 C         0.089940         0.953288        -0.231593
 C         1.463988         0.265958        -0.115527
 C         2.535534        -0.021794        -1.147319
 C         3.353883        -0.409994         0.053127
 C         2.640462        -1.657788         0.564093
 O         1.344347        -1.051721         0.664771
 O         4.680965         0.131796         0.082367
 C         4.029637         1.395313         0.395422
 C         2.675476         0.684905         0.849143
 H        -0.626748         0.794675         0.607227
 H         0.354349         2.086800        -0.374417
 H        -0.456046         0.603575        -1.154057
 H         2.375449        -0.833532        -1.935049
 H         2.931580         0.793617        -1.662265
 H         2.789452        -2.475805        -0.219155
 H         2.958904        -1.931848         1.600990
 H         4.441540         1.996975         1.311318
 H         4.123436         2.043654        -0.418138
 H         2.524087         0.630098         1.981977
