19
Iteration:  3134charge 0 multiplicity 1
 C         0.078710         0.931099        -0.174552
 C         1.502415         0.313379        -0.059787
 C         2.477453        -0.087998        -1.115883
 C         3.314397        -0.362815         0.032468
 C         2.609825        -1.668162         0.504254
 O         1.365161        -1.081496         0.599983
 O         4.686212         0.045221         0.154567
 C         4.090429         1.456780         0.377437
 C         2.713108         0.857205         0.829874
 H        -0.334547         0.831915         0.856015
 H         0.003160         1.969016        -0.582466
 H        -0.535721         0.341759        -0.988535
 H         2.224881        -0.905974        -1.771166
 H         2.741462         0.760338        -1.821254
 H         2.605016        -2.458403        -0.318987
 H         2.855303        -2.278679         1.430940
 H         4.567501         1.864512         1.191226
 H         4.282750         1.938228        -0.616035
 H         2.623278         0.756432         1.925704
