19
Iteration:    31
 C         0.088223         0.879855        -0.276393
 C         1.488964         0.269869        -0.066022
 C         2.459752        -0.000015        -1.143874
 C         3.370269        -0.368879         0.042740
 C         2.661710        -1.649134         0.439470
 O         1.380221        -1.132567         0.699071
 O         4.656953         0.141346         0.083582
 C         4.061479         1.382844         0.520291
 C         2.675727         0.805323         0.814578
 H        -0.569324         0.468519         0.612201
 H         0.034606         1.953228        -0.448754
 H        -0.469129         0.435352        -1.152141
 H         2.325313        -0.613893        -1.964906
 H         2.686155         0.964444        -1.553213
 H         2.696045        -2.465272        -0.220753
 H         3.155656        -1.997804         1.348814
 H         4.598589         1.686332         1.394632
 H         4.157612         2.189534        -0.384081
 H         2.407180         0.909029         1.978502
