19
Iteration:  2494
 C         0.049364         0.869730        -0.221155
 C         1.494367         0.325408        -0.150338
 C         2.445514         0.021652        -1.180030
 C         3.386111        -0.452802         0.023860
 C         2.624169        -1.634082         0.648190
 O         1.300605        -1.023847         0.589661
 O         4.703195         0.066596         0.096301
 C         4.062583         1.424142         0.443348
 C         2.768636         0.749871         0.875298
 H        -0.427296         1.117410         0.789335
 H         0.010668         1.711805        -0.909547
 H        -0.557830         0.014398        -0.710253
 H         2.257882        -0.704647        -2.029816
 H         2.987329         0.871205        -1.592292
 H         2.809547        -2.597080         0.013865
 H         2.908935        -1.875510         1.685194
 H         4.642202         1.905906         1.127064
 H         4.120261         2.030253        -0.445865
 H         2.507375         0.706477         1.925953
