19
Iteration:   723
 C         0.106627         0.876562        -0.216864
 C         1.490812         0.312531        -0.103708
 C         2.521672         0.031512        -1.130760
 C         3.408034        -0.488876        -0.022853
 C         2.760201        -1.671437         0.600788
 O         1.301015        -1.075018         0.467102
 O         4.672719         0.197636         0.143786
 C         3.955862         1.430817         0.450222
 C         2.653693         0.676992         0.900533
 H        -0.534030         0.531510         0.677446
 H         0.323560         1.933909        -0.119444
 H        -0.507642         0.586535        -1.019856
 H         2.409417        -0.740234        -1.846121
 H         2.945252         0.942584        -1.624857
 H         2.617792        -2.583548         0.084248
 H         2.751688        -1.901339         1.626169
 H         4.525762         1.920884         1.318480
 H         3.848682         2.108961        -0.494353
 H         2.567509         0.731613         1.988561
