19
Iteration:  1567charge 0 multiplicity 1
 C         0.179304         1.067945        -0.211209
 C         1.472045         0.237953        -0.071797
 C         2.534503        -0.088536        -1.179677
 C         3.372728        -0.421865         0.154019
 C         2.651495        -1.750330         0.625307
 O         1.295541        -1.213378         0.472038
 O         4.681096         0.177038         0.081248
 C         3.933115         1.517632         0.415323
 C         2.694388         0.736418         0.870595
 H        -0.385473         1.115916         0.750738
 H         0.468003         2.163587        -0.469704
 H        -0.310530         0.672510        -1.108828
 H         2.257867        -0.778722        -1.976375
 H         2.842949         0.941226        -1.564039
 H         2.667227        -2.567603        -0.042781
 H         3.046643        -1.922506         1.619736
 H         4.420677         2.080411         1.260394
 H         4.051871         2.090045        -0.424761
 H         2.549576         0.696807         1.968337
