19
Iteration:  1963
 C         0.082423         0.910912        -0.204697
 C         1.471252         0.290656        -0.026045
 C         2.473732        -0.009337        -1.249329
 C         3.288240        -0.417675         0.007447
 C         2.703003        -1.688951         0.629804
 O         1.300226        -1.050527         0.510995
 O         4.702589         0.112325         0.110009
 C         4.076685         1.443738         0.508882
 C         2.755474         0.724097         0.835359
 H        -0.491404         0.972734         0.712015
 H         0.028351         1.847558        -0.669934
 H        -0.424055         0.277846        -0.944373
 H         2.246280        -0.839873        -1.922182
 H         2.921669         0.892243        -1.698624
 H         2.836387        -2.537720        -0.026034
 H         2.814082        -1.871205         1.723753
 H         4.452762         2.015012         1.500201
 H         4.211706         2.072266        -0.433039
 H         2.439844         0.650527         1.901191
