19
Iteration:  2736charge 0 multiplicity 1
 C         0.233755         1.013675        -0.067352
 C         1.493751         0.292142        -0.052527
 C         2.368370        -0.173519        -1.297716
 C         3.406912        -0.483759         0.031136
 C         2.713362        -1.641109         0.637815
 O         1.304644        -1.072432         0.484020
 O         4.715788         0.146581         0.218629
 C         3.931514         1.462268         0.376230
 C         2.659771         0.758047         0.749733
 H         0.026599         1.199255         0.997841
 H         0.360537         2.088015        -0.544174
 H        -0.733151         0.752083        -0.485923
 H         2.214584        -1.108780        -1.846745
 H         3.003904         0.440658        -2.016179
 H         2.660195        -2.538174         0.033863
 H         2.988717        -1.750958         1.652808
 H         4.287204         1.888929         1.299916
 H         4.015025         2.037961        -0.598127
 H         2.449197         0.580507         1.832520
