19
Iteration:  2666
 C         0.034703         0.848381        -0.300376
 C         1.450044         0.363470        -0.093409
 C         2.405436        -0.020069        -1.202811
 C         3.318875        -0.404663        -0.029618
 C         2.630599        -1.624730         0.569757
 O         1.325724        -1.035024         0.715464
 O         4.752706         0.139423         0.041531
 C         4.156384         1.373820         0.532842
 C         2.776729         0.729056         0.888640
 H        -0.627896         1.108829         0.538884
 H         0.002104         1.612105        -0.997495
 H        -0.498637         0.048215        -0.869027
 H         2.090304        -0.942252        -1.732199
 H         2.791435         0.676845        -1.939476
 H         2.561749        -2.485540        -0.131146
 H         2.920513        -1.880763         1.611265
 H         4.769052         1.717962         1.525257
 H         4.062764         2.059375        -0.359840
 H         2.693898         0.747482         1.963403
