19
Iteration:   597charge 0 multiplicity 1
 C         0.063008         0.815561        -0.167544
 C         1.513925         0.305874        -0.063552
 C         2.492930         0.051787        -1.237017
 C         3.365663        -0.391803         0.035671
 C         2.699706        -1.671304         0.526778
 O         1.353089        -1.111622         0.513992
 O         4.731781         0.074146         0.205472
 C         3.975589         1.485188         0.459504
 C         2.634208         0.798072         0.863731
 H        -0.514739         1.001567         0.767584
 H         0.103387         1.816370        -0.742006
 H        -0.462199         0.188024        -0.971432
 H         2.330745        -0.738023        -2.048142
 H         2.764349         0.957277        -1.746052
 H         2.565863        -2.547434        -0.144623
 H         3.078016        -1.964522         1.534404
 H         4.515157         1.826798         1.366709
 H         4.217597         2.110404        -0.348354
 H         2.395444         0.737249         1.911153
