19
Iteration:  4044charge 0 multiplicity 1
 C         0.226197         1.030453        -0.170723
 C         1.449387         0.256826        -0.040609
 C         2.337710        -0.113796        -1.158865
 C         3.327866        -0.445728         0.051530
 C         2.596991        -1.668270         0.607878
 O         1.335389        -1.068330         0.529182
 O         4.789193         0.136169         0.149678
 C         4.036925         1.480792         0.365904
 C         2.699647         0.712088         0.778717
 H        -0.233910         0.917418         0.837383
 H         0.280984         2.006935        -0.628400
 H        -0.441316         0.552191        -0.850203
 H         2.035652        -0.867248        -1.863719
 H         2.878202         0.803966        -1.519541
 H         2.712411        -2.579436        -0.126982
 H         2.708114        -2.104519         1.657560
 H         4.586582         1.972217         1.191185
 H         4.047631         2.112008        -0.557056
 H         2.626645         0.582758         1.889776
