19
Iteration:   541
 C         0.201706         1.013797        -0.197837
 C         1.477240         0.309232        -0.091143
 C         2.446297        -0.129567        -1.109075
 C         3.365229        -0.422101         0.129968
 C         2.738281        -1.684029         0.582620
 O         1.353499        -1.161378         0.404948
 O         4.652820         0.272593         0.056189
 C         3.956605         1.474894         0.465248
 C         2.632089         0.662640         0.899310
 H        -0.498426         0.814323         0.702869
 H         0.413535         2.088968        -0.295246
 H        -0.348609         0.667199        -1.118201
 H         2.160615        -1.004407        -1.666233
 H         3.022164         0.593547        -1.644339
 H         2.861194        -2.568632        -0.129653
 H         2.875239        -2.075181         1.612161
 H         4.449474         1.867832         1.425009
 H         4.052231         2.235592        -0.286232
 H         2.390085         0.416214         1.963319
