19
Iteration:   736charge 0 multiplicity 1
 C         0.094483         0.873022        -0.177506
 C         1.518306         0.292047        -0.048927
 C         2.496108         0.029338        -1.232354
 C         3.373363        -0.394035         0.055274
 C         2.687054        -1.632618         0.600493
 O         1.329470        -1.079058         0.460713
 O         4.704489         0.139729         0.177529
 C         3.977071         1.377665         0.475217
 C         2.664168         0.720113         0.800652
 H        -0.424187         0.423771         0.665513
 H        -0.145389         1.880202        -0.168356
 H        -0.262751         0.437018        -1.079074
 H         2.102062        -0.591023        -2.067573
 H         2.878517         0.900257        -1.694677
 H         2.896764        -2.577093         0.075069
 H         3.133802        -1.689360         1.593606
 H         4.457836         1.974318         1.378621
 H         3.984767         2.106370        -0.429708
 H         2.399536         0.488724         1.936371
