19
Iteration:   221
 C         0.125744         0.901197        -0.088618
 C         1.504462         0.310745        -0.087249
 C         2.435147        -0.042718        -1.252627
 C         3.396745        -0.436606         0.013736
 C         2.695358        -1.686849         0.555499
 O         1.306093        -1.106498         0.510528
 O         4.732177         0.204640         0.178875
 C         3.963042         1.442602         0.483965
 C         2.681628         0.693593         0.773243
 H        -0.316851         0.630898         0.835806
 H         0.152850         2.060438        -0.145417
 H        -0.520655         0.623127        -0.966054
 H         2.261097        -0.681164        -2.091619
 H         2.867121         0.827197        -1.708485
 H         2.785743        -2.590491         0.011404
 H         2.956655        -1.808094         1.567490
 H         4.420476         2.099523         1.369321
 H         3.983759         2.052967        -0.447628
 H         2.462747         0.539785         1.865426
