19
Iteration:  1978
 C         0.098589         0.973339        -0.212670
 C         1.472013         0.296964        -0.165921
 C         2.540446        -0.035970        -1.158078
 C         3.432047        -0.433683         0.078633
 C         2.695917        -1.639680         0.570298
 O         1.277602        -1.100990         0.583634
 O         4.673086         0.151034         0.107133
 C         4.004168         1.386663         0.469420
 C         2.635445         0.703531         0.804699
 H        -0.107142         1.077711         0.864828
 H         0.281374         1.990069        -0.682366
 H        -0.690376         0.317892        -0.601173
 H         2.311506        -0.677625        -2.013920
 H         2.901623         0.921304        -1.664773
 H         2.606253        -2.580272        -0.009882
 H         3.103247        -1.791622         1.569964
 H         4.615608         1.731472         1.217814
 H         3.906099         2.205260        -0.230652
 H         2.603386         0.498870         1.956583
