19
Iteration:  1315charge 0 multiplicity 1
 C         0.197577         0.911044        -0.247714
 C         1.460457         0.315857        -0.014986
 C         2.397334        -0.052589        -1.238290
 C         3.378328        -0.414446         0.054882
 C         2.705309        -1.688206         0.564046
 O         1.279521        -1.065761         0.512377
 O         4.685353         0.213479         0.147241
 C         4.037896         1.400653         0.526102
 C         2.712196         0.697671         0.793999
 H        -0.105986         1.215032         0.778313
 H         0.264329         1.836879        -0.897502
 H        -0.465056         0.123717        -0.693136
 H         2.116250        -0.980371        -1.821539
 H         2.887504         0.747912        -1.742474
 H         2.692768        -2.600961        -0.089090
 H         2.916229        -1.929866         1.626801
 H         4.424023         1.997013         1.462410
 H         3.907345         2.144068        -0.291173
 H         2.544204         0.556575         1.952701
