19
Iteration:   946
 C         0.128718         0.945261        -0.244417
 C         1.470392         0.246502        -0.059989
 C         2.514204        -0.031539        -1.205384
 C         3.351415        -0.408476        -0.022715
 C         2.684398        -1.705140         0.554906
 O         1.370706        -1.075111         0.585159
 O         4.680160         0.156555         0.111638
 C         3.940990         1.519974         0.558856
 C         2.711950         0.644185         0.839909
 H        -0.380232         0.936556         0.684916
 H         0.135858         1.979302        -0.725759
 H        -0.353727         0.416156        -1.106742
 H         2.195065        -0.799508        -1.873979
 H         2.837329         0.946660        -1.677130
 H         2.597532        -2.632487         0.064263
 H         3.056983        -1.936494         1.508350
 H         4.556811         2.119174         1.395180
 H         3.789520         2.276623        -0.334455
 H         2.418564         0.370040         1.961555
