19
Iteration:   142charge 0 multiplicity 1
 C         0.105009         0.906545        -0.223194
 C         1.506900         0.318743         0.005511
 C         2.490596        -0.023785        -1.193533
 C         3.398808        -0.398667        -0.028025
 C         2.686716        -1.667285         0.553397
 O         1.289619        -1.096558         0.511528
 O         4.712630         0.182401         0.132070
 C         3.969149         1.453368         0.479656
 C         2.726897         0.665279         0.899071
 H        -0.433197         1.080799         0.771186
 H        -0.000795         1.811885        -0.938155
 H        -0.472959         0.042524        -0.663017
 H         2.098489        -0.776339        -1.779161
 H         2.671689         0.896612        -1.633037
 H         2.748889        -2.460234        -0.156235
 H         3.098033        -2.064883         1.474414
 H         4.590623         2.033302         1.225573
 H         3.786462         2.145664        -0.459099
 H         2.560970         0.379339         2.043596
