19
Iteration:  2542
 C         0.049999         0.975639        -0.302517
 C         1.512091         0.242543        -0.097274
 C         2.452921        -0.050641        -1.193006
 C         3.271498        -0.416418         0.035191
 C         2.708765        -1.694543         0.652571
 O         1.357318        -1.045775         0.650683
 O         4.681123         0.088290         0.005431
 C         4.145227         1.408539         0.548272
 C         2.650066         0.812488         0.814391
 H        -0.391451         1.277117         0.640628
 H         0.038608         1.875184        -1.072393
 H        -0.754913         0.371973        -0.682288
 H         2.083998        -0.876517        -1.858408
 H         2.884106         0.799525        -1.783655
 H         2.877596        -2.592452        -0.021589
 H         3.255391        -2.025159         1.619417
 H         4.716137         1.677954         1.527044
 H         4.158729         2.328566        -0.134753
 H         2.319767         0.661298         1.873500
