19
Iteration:  1535
 C         0.108443         0.949975        -0.147386
 C         1.543442         0.298638        -0.113949
 C         2.480023        -0.091695        -1.272700
 C         3.350888        -0.423574         0.031917
 C         2.696415        -1.671519         0.576670
 O         1.314392        -1.055248         0.515844
 O         4.698848         0.124445         0.190282
 C         3.969096         1.473334         0.506005
 C         2.679154         0.723007         0.828218
 H        -0.433954         0.914537         0.838210
 H         0.288385         1.889286        -0.829300
 H        -0.426832         0.182225        -0.775317
 H         2.131054        -0.778364        -2.006111
 H         2.838525         0.798212        -1.889773
 H         2.612269        -2.562979         0.004994
 H         3.053740        -1.965135         1.552148
 H         4.397057         2.021760         1.396330
 H         4.061946         2.042862        -0.377921
 H         2.626160         0.763217         1.982515
