19
Iteration:  4076charge 0 multiplicity 1
 C         0.252450         1.066018        -0.056142
 C         1.439445         0.286965        -0.115535
 C         2.601540        -0.141570        -1.242245
 C         3.303195        -0.421721         0.042851
 C         2.651668        -1.590774         0.619031
 O         1.318102        -1.076507         0.537831
 O         4.699713         0.122629         0.114587
 C         3.937045         1.387750         0.357442
 C         2.591963         0.700490         0.832773
 H        -0.080135         0.938054         1.020920
 H         0.524307         2.126646        -0.188164
 H        -0.548864         0.669480        -0.658814
 H         2.385967        -0.957768        -1.898856
 H         3.082659         0.469708        -2.020253
 H         2.665182        -2.511968         0.071836
 H         2.807816        -1.835932         1.623608
 H         4.493391         1.949511         1.083549
 H         3.826003         1.938353        -0.570104
 H         2.517050         0.540322         1.934243
