19
Iteration:   626charge 0 multiplicity 1
 C         0.013840         0.800373        -0.148102
 C         1.529861         0.295222        -0.112758
 C         2.479868        -0.051454        -1.200487
 C         3.347872        -0.365224         0.140880
 C         2.645822        -1.625650         0.580643
 O         1.338091        -1.107738         0.360792
 O         4.668000         0.149198         0.153935
 C         4.071750         1.470020         0.500748
 C         2.754391         0.808351         0.867615
 H        -0.426287         1.195325         0.772332
 H        -0.022800         1.553510        -0.834339
 H        -0.588187         0.013696        -0.445495
 H         2.312025        -0.794443        -1.914472
 H         2.746717         0.927859        -1.653075
 H         2.693171        -2.426854        -0.192167
 H         2.888676        -2.090660         1.529838
 H         4.701029         1.751481         1.383210
 H         4.207608         2.174816        -0.358646
 H         2.559900         0.565663         2.028016
