19
Iteration:  1509charge 0 multiplicity 1
 C         0.051951         0.848168        -0.204037
 C         1.478222         0.339597        -0.165702
 C         2.461928        -0.032850        -1.193284
 C         3.326535        -0.361799         0.092662
 C         2.702253        -1.616244         0.518557
 O         1.311762        -1.089817         0.539805
 O         4.701385         0.133016         0.181134
 C         4.146862         1.379571         0.526607
 C         2.649547         0.775592         0.806721
 H        -0.346812         1.099036         0.775021
 H         0.178980         1.656714        -0.870611
 H        -0.645018         0.109803        -0.558150
 H         2.050834        -0.875842        -1.888022
 H         2.818901         0.775325        -1.780681
 H         2.724631        -2.517658        -0.089733
 H         3.149075        -1.966435         1.492007
 H         4.535260         1.807715         1.449193
 H         4.247697         1.990751        -0.375507
 H         2.557387         0.758658         1.831853
