19
Iteration:  1968charge 0 multiplicity 1
 C         0.097527         0.935141        -0.188686
 C         1.463970         0.288912        -0.115694
 C         2.489969        -0.002866        -1.208864
 C         3.328368        -0.428349        -0.003809
 C         2.721484        -1.680611         0.624031
 O         1.277673        -1.059157         0.544169
 O         4.687289         0.126789         0.111946
 C         4.046052         1.430827         0.504188
 C         2.746735         0.715385         0.834858
 H        -0.471166         1.056520         0.758722
 H        -0.057595         1.946010        -0.734442
 H        -0.492418         0.297531        -0.882898
 H         2.393219        -0.867245        -1.891866
 H         2.920971         0.931152        -1.625440
 H         2.897566        -2.615412         0.021091
 H         2.846870        -1.949221         1.663590
 H         4.457956         1.814692         1.344400
 H         4.090425         2.050541        -0.358269
 H         2.534731         0.662622         1.950865
