19
Iteration:  3836
 C         0.118245         0.834968        -0.156295
 C         1.497691         0.374294         0.002209
 C         2.378704         0.036423        -1.221539
 C         3.293593        -0.465058         0.042084
 C         2.674358        -1.661533         0.566807
 O         1.250302        -1.027435         0.510875
 O         4.738509         0.073572         0.136960
 C         4.187710         1.405825         0.428169
 C         2.740151         0.762398         0.843609
 H        -0.495063         1.094342         0.688261
 H         0.121374         1.539217        -0.959586
 H        -0.455220         0.144028        -0.730039
 H         2.032433        -0.719805        -1.975422
 H         2.974097         0.821988        -1.680296
 H         2.583598        -2.601901         0.024818
 H         2.864261        -1.781541         1.642339
 H         4.574883         2.062150         1.237479
 H         3.994997         2.033188        -0.532774
 H         2.590159         0.732608         1.959114
