19
Iteration:  1164
 C         0.120623         0.954876        -0.185682
 C         1.472539         0.242973        -0.085838
 C         2.437372        -0.040035        -1.238001
 C         3.451353        -0.381923         0.056365
 C         2.691879        -1.632733         0.546217
 O         1.286074        -1.134156         0.530477
 O         4.683836         0.191785         0.204376
 C         4.031316         1.449252         0.461799
 C         2.660443         0.688558         0.815572
 H        -0.243691         1.297444         0.783440
 H         0.275713         1.783771        -0.932429
 H        -0.597287         0.195748        -0.526535
 H         2.174216        -0.833075        -1.924442
 H         2.989847         0.597991        -1.826127
 H         2.608729        -2.552421        -0.175235
 H         3.111458        -1.874430         1.519381
 H         4.547258         1.870451         1.443225
 H         4.052484         2.089378        -0.411288
 H         2.463825         0.642656         1.946712
