19
Iteration:  2128
 C         0.223713         0.934217        -0.214198
 C         1.520900         0.258268        -0.002608
 C         2.504571         0.025537        -1.129016
 C         3.336124        -0.426912         0.069124
 C         2.682921        -1.716473         0.556049
 O         1.275529        -1.105225         0.570758
 O         4.677984         0.126803         0.089549
 C         3.981402         1.452602         0.392085
 C         2.624530         0.740154         0.772777
 H        -0.279763         1.119357         0.718548
 H         0.416685         1.931546        -0.665527
 H        -0.396652         0.433998        -0.996562
 H         2.329212        -0.637638        -1.934076
 H         3.011400         0.977901        -1.437520
 H         2.712039        -2.686521         0.034601
 H         3.166947        -1.811242         1.579186
 H         4.364460         1.828961         1.430592
 H         3.820030         2.168640        -0.385147
 H         2.395592         0.626537         1.856689
