19
Iteration:  2493charge 0 multiplicity 1
 C         0.054247         0.880601        -0.219400
 C         1.500559         0.316749        -0.159288
 C         2.447432         0.020230        -1.181765
 C         3.381503        -0.452416         0.025017
 C         2.623920        -1.635424         0.650625
 O         1.304163        -1.028577         0.594460
 O         4.697066         0.068423         0.103514
 C         4.060732         1.420914         0.427761
 C         2.764791         0.743666         0.876010
 H        -0.450692         1.125559         0.782679
 H        -0.034680         1.732599        -0.876447
 H        -0.553104         0.035969        -0.707617
 H         2.279212        -0.703612        -1.991800
 H         2.997192         0.899785        -1.572841
 H         2.838546        -2.540891        -0.020473
 H         2.914755        -1.868162         1.664535
 H         4.654596         1.921819         1.129163
 H         4.123723         2.039458        -0.426970
 H         2.501278         0.698163         1.923602
