19
Iteration:  3378charge 0 multiplicity 1
 C         0.127832         0.868622        -0.183157
 C         1.566804         0.335882        -0.050021
 C         2.425618         0.022466        -1.220880
 C         3.406298        -0.460027         0.144190
 C         2.615568        -1.706063         0.520873
 O         1.304261        -1.054502         0.554069
 O         4.684314         0.085965         0.055952
 C         4.056733         1.436066         0.434208
 C         2.699306         0.802300         0.903328
 H        -0.486045         1.125942         0.720081
 H         0.318969         1.867946        -0.701684
 H        -0.509379         0.098581        -0.706972
 H         2.154536        -0.863318        -1.783798
 H         2.779362         0.802447        -1.868276
 H         2.540130        -2.558123        -0.226738
 H         2.987260        -2.015603         1.585748
 H         4.564807         2.078675         1.199903
 H         3.947227         1.958084        -0.451483
 H         2.400562         0.920413         1.989052
