19
Iteration:  1999charge 0 multiplicity 1
 C         0.264412         1.034189        -0.124869
 C         1.501500         0.208928        -0.099550
 C         2.464281        -0.083480        -1.230966
 C         3.360984        -0.419137         0.040519
 C         2.670875        -1.740474         0.563833
 O         1.296855        -1.103159         0.528248
 O         4.657405         0.181821         0.142958
 C         3.931485         1.467014         0.479753
 C         2.661236         0.749680         0.820167
 H        -0.190482         1.449816         0.747188
 H         0.544472         1.781560        -0.902211
 H        -0.471611         0.338510        -0.556579
 H         2.411646        -0.945077        -1.878009
 H         2.848763         0.777273        -1.878580
 H         2.803294        -2.592754        -0.126318
 H         2.809567        -2.123094         1.580323
 H         4.395853         1.982616         1.355774
 H         3.953036         2.209124        -0.384041
 H         2.654581         0.771253         2.014552
