19
Iteration:  2792charge 0 multiplicity 1
 C         0.127261         0.890792        -0.301018
 C         1.531977         0.379102         0.011579
 C         2.330172         0.011209        -1.143108
 C         3.402390        -0.444387         0.083883
 C         2.619566        -1.624098         0.617517
 O         1.317127        -1.069462         0.566294
 O         4.705219         0.103421         0.025239
 C         4.064633         1.387514         0.411877
 C         2.756348         0.722494         0.873065
 H        -0.566666         0.701040         0.569781
 H         0.035182         2.013414        -0.487131
 H        -0.199822         0.184823        -1.005076
 H         2.320819        -0.910665        -1.600932
 H         2.707273         0.872997        -1.756848
 H         2.622533        -2.569068         0.094433
 H         2.839653        -1.840216         1.649537
 H         4.625644         1.946244         1.093602
 H         3.953768         2.014572        -0.533493
 H         2.607203         0.683681         1.962815
