19
Iteration:   160
 C         0.057586         0.784644        -0.269044
 C         1.462401         0.260213        -0.036302
 C         2.446805         0.101108        -1.150567
 C         3.366292        -0.389963         0.169307
 C         2.673946        -1.697812         0.514824
 O         1.362452        -1.104034         0.549184
 O         4.650683         0.157534        -0.002010
 C         4.093135         1.429342         0.480173
 C         2.681992         0.751694         0.888968
 H        -0.466046         1.133079         0.703025
 H         0.396749         1.742164        -0.543070
 H        -0.648596         0.294644        -0.937592
 H         2.420196        -0.674513        -2.010217
 H         3.031464         1.045116        -1.512528
 H         2.776636        -2.589837        -0.242291
 H         2.877534        -1.998213         1.621179
 H         4.538285         1.730311         1.381641
 H         4.290162         2.173506        -0.285847
 H         2.473493         0.924217         1.997405
