19
Iteration:  3786
 C         0.232103         1.146991        -0.120296
 C         1.505966         0.208248        -0.069736
 C         2.454832        -0.145731        -1.223871
 C         3.426919        -0.518048        -0.061394
 C         2.697554        -1.749743         0.613129
 O         1.244471        -1.115994         0.551154
 O         4.658226         0.224456         0.156465
 C         3.987693         1.479928         0.413820
 C         2.685707         0.721955         0.820926
 H        -0.200447         1.195600         0.904063
 H         0.490564         2.143002        -0.512124
 H        -0.602738         0.891080        -0.817287
 H         2.125348        -0.953067        -1.821690
 H         2.635744         0.724555        -1.818083
 H         2.660448        -2.636096        -0.039590
 H         2.838300        -2.011213         1.661245
 H         4.359786         2.024213         1.282897
 H         4.023076         2.101140        -0.399575
 H         2.626904         0.568307         1.863556
