19
Iteration:  3231charge 0 multiplicity 1
 C         0.081427         0.950897        -0.251676
 C         1.488066         0.348241         0.000062
 C         2.432675        -0.076920        -1.235734
 C         3.332758        -0.390452        -0.009322
 C         2.714033        -1.666386         0.562145
 O         1.270308        -1.064657         0.669165
 O         4.746560         0.141403         0.098560
 C         4.090606         1.397952         0.474335
 C         2.671557         0.749708         0.815989
 H        -0.475386         0.991472         0.700880
 H         0.073645         1.950424        -0.702785
 H        -0.492302         0.177489        -0.900282
 H         2.258028        -0.955017        -1.882671
 H         2.760290         0.753784        -1.993155
 H         2.583659        -2.600756        -0.100173
 H         3.158441        -2.047244         1.518709
 H         4.481498         1.681434         1.410297
 H         4.221927         2.111247        -0.378898
 H         2.715660         0.469051         1.877332
