19
Iteration:  1194
 C         0.108904         0.854194        -0.289381
 C         1.501783         0.305148        -0.049136
 C         2.433679         0.058825        -1.190357
 C         3.403319        -0.390862         0.046148
 C         2.742547        -1.680519         0.586012
 O         1.240089        -1.069296         0.535562
 O         4.671017         0.144544         0.076937
 C         4.066838         1.404255         0.505649
 C         2.675147         0.706705         0.898615
 H        -0.310088         1.033266         0.672762
 H         0.126901         1.691350        -0.967360
 H        -0.269744         0.027347        -0.840289
 H         2.132355        -0.722271        -1.873731
 H         2.969717         0.919556        -1.638248
 H         2.600151        -2.667837         0.143680
 H         3.112807        -1.911070         1.621234
 H         4.651716         1.875037         1.328872
 H         4.072476         2.230604        -0.244636
 H         2.434991         0.738566         2.002655
