19
Iteration:  4938
 C         0.159482         1.066414        -0.120398
 C         1.526655         0.243927         0.005329
 C         2.414454        -0.106687        -1.207309
 C         3.371818        -0.483602         0.009053
 C         2.672069        -1.676783         0.596786
 O         1.242573        -1.064397         0.533784
 O         4.731801         0.174665         0.086599
 C         3.996790         1.448879         0.434840
 C         2.788134         0.663959         0.797556
 H        -0.419644         0.989091         0.780478
 H         0.323654         2.061064        -0.502604
 H        -0.555500         0.698679        -0.829857
 H         2.136957        -0.760160        -2.035802
 H         2.656792         0.803508        -1.834712
 H         2.666605        -2.610488         0.051863
 H         2.809604        -1.993437         1.656928
 H         4.605560         1.965988         1.240816
 H         3.861635         2.226716        -0.377444
 H         2.464897         0.488841         1.831118
