19
Iteration:  2692charge 0 multiplicity 1
 C         0.189664         0.854739        -0.250962
 C         1.500389         0.257505        -0.041082
 C         2.470068         0.052400        -1.086938
 C         3.322450        -0.411010         0.116528
 C         2.682722        -1.695591         0.559672
 O         1.294442        -1.031729         0.607192
 O         4.634238         0.046862        -0.003626
 C         4.059579         1.455875         0.423328
 C         2.713636         0.782487         0.845033
 H        -0.314759         1.372522         0.572303
 H         0.183966         1.598550        -1.166255
 H        -0.457280        -0.020631        -0.550082
 H         2.168385        -0.786606        -1.769190
 H         2.743551         1.009330        -1.611922
 H         2.657352        -2.442121        -0.220037
 H         2.844899        -1.890125         1.575260
 H         4.545374         1.618724         1.353604
 H         4.157134         2.144558        -0.443509
 H         2.638752         1.103924         1.915080
