19
Iteration:  1636charge 0 multiplicity 1
 C        -0.002818         0.863708        -0.242573
 C         1.533062         0.298985        -0.086554
 C         2.463773        -0.008503        -1.210189
 C         3.366800        -0.434789         0.103790
 C         2.645773        -1.665599         0.558560
 O         1.326360        -1.070494         0.557029
 O         4.699500         0.085192         0.148005
 C         4.121293         1.443760         0.499213
 C         2.691582         0.794738         0.759992
 H        -0.204785         1.029108         0.841497
 H        -0.017968         1.857754        -0.697806
 H        -0.599248         0.153326        -0.890449
 H         2.422563        -0.727512        -2.017637
 H         2.849009         0.954687        -1.557460
 H         2.763252        -2.529957        -0.093521
 H         2.857463        -1.809006         1.549271
 H         4.493621         1.833862         1.391277
 H         4.076884         2.235510        -0.187704
 H         2.402502         0.766180         1.891842
