19
Iteration:   884
 C         0.085522         0.828835        -0.181529
 C         1.447594         0.307768        -0.097866
 C         2.510835        -0.009507        -1.227517
 C         3.343791        -0.430275         0.013976
 C         2.686333        -1.628545         0.557233
 O         1.287064        -1.052582         0.498785
 O         4.751330         0.189694         0.212903
 C         4.066975         1.434038         0.488905
 C         2.698808         0.689209         0.843100
 H        -0.429093         0.421150         0.689529
 H        -0.037473         1.919987        -0.175264
 H        -0.431548         0.243478        -0.927535
 H         2.203411        -0.650719        -2.058696
 H         2.897396         0.903014        -1.759267
 H         2.695600        -2.552433        -0.093327
 H         2.966103        -1.771468         1.679935
 H         4.598226         1.992847         1.184178
 H         3.730577         1.900979        -0.434029
 H         2.408154         0.614874         1.850585
