19
Iteration:  3717charge 0 multiplicity 1
 C         0.110404         0.811055        -0.227761
 C         1.501092         0.338839         0.021799
 C         2.414662        -0.023486        -1.265502
 C         3.367718        -0.372091         0.034804
 C         2.579263        -1.696165         0.500666
 O         1.229924        -1.005024         0.624584
 O         4.781461         0.091329         0.111732
 C         4.139786         1.413652         0.466210
 C         2.733594         0.810115         0.860609
 H        -0.332619         0.649717         0.799776
 H        -0.011117         1.808160        -0.704637
 H        -0.450427         0.154608        -0.939037
 H         2.152122        -0.838473        -1.953796
 H         2.629368         0.883061        -1.826196
 H         2.511890        -2.497191        -0.170898
 H         2.920609        -2.046275         1.500743
 H         4.591734         1.879602         1.341315
 H         4.324696         1.960006        -0.391672
 H         2.614438         0.797790         1.974878
