19
Iteration:  2722charge 0 multiplicity 1
 C         0.111197         1.095448        -0.110698
 C         1.476950         0.269358        -0.114282
 C         2.466056        -0.121539        -1.200208
 C         3.364105        -0.442288         0.037528
 C         2.716808        -1.682939         0.634369
 O         1.295363        -1.092185         0.492835
 O         4.664159         0.156918         0.191626
 C         4.018174         1.467425         0.368195
 C         2.743058         0.633894         0.790398
 H        -0.165504         1.431006         0.881013
 H         0.212006         1.936816        -0.741039
 H        -0.562946         0.291254        -0.479159
 H         2.013081        -0.983455        -1.751222
 H         2.727431         0.737975        -1.771073
 H         2.809499        -2.661619         0.103666
 H         2.879130        -1.799479         1.719836
 H         4.616122         2.233288         1.066595
 H         3.924457         2.048754        -0.636791
 H         2.726904         0.604375         1.889225
