19
Iteration:   824charge 0 multiplicity 1
 C         0.157561         1.010343        -0.255372
 C         1.475623         0.229232         0.023862
 C         2.487207        -0.019473        -1.185194
 C         3.370359        -0.412591         0.095020
 C         2.690588        -1.675503         0.536159
 O         1.331142        -1.193670         0.445916
 O         4.728318         0.210442         0.095845
 C         3.895139         1.476131         0.487689
 C         2.694438         0.641691         0.890148
 H        -0.218334         1.517122         0.672838
 H         0.338790         1.769910        -0.995066
 H        -0.677159         0.406307        -0.624330
 H         2.100899        -0.918456        -1.724705
 H         2.876994         0.810246        -1.737831
 H         2.851230        -2.549011        -0.104941
 H         2.915090        -1.886099         1.558343
 H         4.396257         2.010185         1.446898
 H         3.819452         2.376471        -0.234912
 H         2.685269         0.700416         2.061476
