19
Iteration:   408charge 0 multiplicity 1
 C         0.231997         0.965520        -0.196062
 C         1.504577         0.216539         0.001427
 C         2.440289        -0.163708        -1.211910
 C         3.302833        -0.392801         0.051529
 C         2.792680        -1.726056         0.567400
 O         1.311546        -1.104232         0.425948
 O         4.713523         0.227736         0.126930
 C         3.912885         1.479006         0.510365
 C         2.634507         0.766575         0.843576
 H        -0.265875         1.052362         0.886899
 H         0.551371         1.987915        -0.498232
 H        -0.404288         0.588561        -1.011534
 H         1.889641        -0.835711        -1.753675
 H         2.653891         0.734349        -1.847482
 H         2.920132        -2.576431        -0.188357
 H         3.040665        -1.957613         1.622680
 H         4.379353         1.931501         1.526365
 H         3.903791         2.241072        -0.254660
 H         2.383573         0.625159         1.968939
