19
Iteration:  2947charge 0 multiplicity 1
 C         0.017765         0.866207        -0.278925
 C         1.511911         0.337786        -0.008301
 C         2.402827        -0.019255        -1.206972
 C         3.330699        -0.462164        -0.039216
 C         2.610588        -1.658694         0.594005
 O         1.337872        -0.989553         0.648858
 O         4.696762         0.148684         0.080550
 C         4.145526         1.445265         0.517474
 C         2.829034         0.660112         0.802573
 H        -0.471861         0.688953         0.735293
 H         0.013201         1.911198        -0.522569
 H        -0.472529         0.350980        -1.160381
 H         1.954319        -0.875591        -1.801479
 H         2.831946         0.665082        -1.886931
 H         2.333975        -2.560576         0.100212
 H         3.058244        -1.872725         1.584676
 H         4.739847         1.809198         1.345191
 H         3.982487         2.192985        -0.426296
 H         2.590211         0.627971         1.893780
