19
Iteration:  2011
 C         0.246268         1.030233        -0.211465
 C         1.519896         0.279579        -0.011618
 C         2.420847        -0.150589        -1.185683
 C         3.395083        -0.441181         0.117845
 C         2.723335        -1.722407         0.515019
 O         1.252949        -1.137138         0.464078
 O         4.643080         0.230289         0.192438
 C         3.985901         1.512527         0.428174
 C         2.709726         0.692739         0.818235
 H         0.092943         1.382156         0.811287
 H         0.301758         1.995570        -0.831388
 H        -0.603093         0.479167        -0.608356
 H         1.926054        -0.981533        -1.744515
 H         2.670136         0.734047        -1.803673
 H         2.599858        -2.602001        -0.144576
 H         3.017089        -1.937177         1.532016
 H         4.553094         1.911952         1.230779
 H         3.876316         2.204144        -0.439701
 H         2.506139         0.421425         1.945774
