19
Iteration:  3782
 C         0.269172         1.135711        -0.145738
 C         1.501064         0.248247        -0.077856
 C         2.413210        -0.146334        -1.220859
 C         3.379298        -0.490007        -0.034047
 C         2.671354        -1.717171         0.589246
 O         1.281414        -1.141084         0.550532
 O         4.672812         0.218723         0.149698
 C         3.989504         1.471637         0.425419
 C         2.690483         0.671456         0.814297
 H        -0.168069         1.212445         0.911266
 H         0.559552         2.228515        -0.352352
 H        -0.560776         0.772617        -0.827893
 H         2.178541        -1.073526        -1.807887
 H         2.634526         0.754625        -1.808971
 H         2.641444        -2.692769         0.125917
 H         2.831104        -1.868331         1.672947
 H         4.217197         2.128246         1.318876
 H         4.004747         2.201896        -0.487060
 H         2.714623         0.516304         1.939398
