19
Iteration:  3317
 C         0.274279         1.025187        -0.084074
 C         1.486022         0.271585        -0.095959
 C         2.449939        -0.117814        -1.263436
 C         3.367464        -0.475894         0.003738
 C         2.659360        -1.591132         0.590045
 O         1.290302        -1.125779         0.604343
 O         4.654610         0.190975         0.119523
 C         3.954726         1.441798         0.469316
 C         2.673255         0.644159         0.727026
 H         0.041314         1.148383         0.967367
 H         0.431929         1.976791        -0.482874
 H        -0.388582         0.648973        -0.810076
 H         2.230071        -0.898389        -2.019778
 H         2.933235         0.791016        -1.774032
 H         2.690961        -2.556698         0.151492
 H         3.072279        -1.686672         1.553044
 H         4.332285         1.936998         1.426089
 H         4.074331         2.111156        -0.437166
 H         2.367271         0.615829         1.780333
