19
Iteration:  1106charge 0 multiplicity 1
 C         0.166541         0.916743        -0.212823
 C         1.488298         0.260979        -0.041171
 C         2.430045        -0.062822        -1.193886
 C         3.447957        -0.412719         0.001200
 C         2.658583        -1.675765         0.623209
 O         1.244522        -1.129470         0.451155
 O         4.731676         0.201855         0.149151
 C         3.928068         1.469364         0.484900
 C         2.747968         0.744545         0.860815
 H        -0.341613         0.864732         0.743708
 H         0.122476         1.970355        -0.401251
 H        -0.450086         0.613669        -1.045768
 H         2.209041        -0.868154        -1.880535
 H         2.955882         0.858021        -1.618945
 H         2.645173        -2.699088         0.130052
 H         2.962547        -1.904224         1.720001
 H         4.443981         2.189882         1.196646
 H         3.884450         2.078585        -0.516156
 H         2.827870         0.363836         1.895640
