19
Iteration:  1278charge 0 multiplicity 1
 C         0.240739         0.985812        -0.111853
 C         1.502605         0.235249        -0.141916
 C         2.526059        -0.031982        -1.142122
 C         3.342732        -0.403063         0.139345
 C         2.746307        -1.658407         0.603960
 O         1.286174        -1.148236         0.446564
 O         4.645549         0.176163         0.148909
 C         3.955116         1.397428         0.383151
 C         2.611311         0.763309         0.811334
 H        -0.399003         0.887891         0.844491
 H         0.403836         2.047076        -0.333614
 H        -0.490947         0.605669        -0.902120
 H         2.239185        -0.770931        -1.924895
 H         3.126917         0.795307        -1.723042
 H         2.677990        -2.504087        -0.045184
 H         2.842135        -1.928308         1.691730
 H         4.518451         1.817022         1.152815
 H         3.836019         2.042488        -0.508308
 H         2.526974         0.608942         1.814033
