19
Iteration:  4625
 C         0.119352         0.942030        -0.152594
 C         1.435150         0.232414        -0.087083
 C         2.446367        -0.047089        -1.231389
 C         3.323308        -0.433139         0.053253
 C         2.674255        -1.609301         0.512416
 O         1.282400        -1.061223         0.587810
 O         4.689720         0.106182         0.107924
 C         4.094368         1.428716         0.459806
 C         2.728641         0.754676         0.827710
 H        -0.150138         1.037292         0.904698
 H         0.190363         1.987048        -0.471509
 H        -0.612789         0.285813        -0.716836
 H         2.154420        -0.708871        -2.033830
 H         2.937067         0.949343        -1.564223
 H         2.799866        -2.620127        -0.030289
 H         2.996895        -1.788003         1.603914
 H         4.634465         1.877091         1.344405
 H         4.190371         2.027059        -0.554914
 H         2.732278         0.522871         1.896956
