19
Iteration:   457charge 0 multiplicity 1
 C         0.122152         0.804851        -0.229422
 C         1.471145         0.265073        -0.061753
 C         2.457472         0.069035        -1.116826
 C         3.420541        -0.421242         0.032984
 C         2.759322        -1.657700         0.496629
 O         1.274964        -1.057198         0.534728
 O         4.655287         0.140128         0.115182
 C         4.078459         1.421531         0.535003
 C         2.634532         0.763394         0.840909
 H        -0.229439         1.135600         0.700210
 H         0.011467         1.554149        -1.041337
 H        -0.412848        -0.081479        -0.623581
 H         2.270562        -0.748336        -1.974600
 H         2.764650         0.908648        -1.723950
 H         2.741363        -2.444572        -0.206612
 H         2.916147        -1.918061         1.531921
 H         4.440795         1.755289         1.501886
 H         4.242390         2.230680        -0.281098
 H         2.336377         0.853278         1.847741
