19
Iteration:  1517charge 0 multiplicity 1
 C         0.026498         0.871191        -0.226662
 C         1.488310         0.395059        -0.112134
 C         2.436121        -0.030818        -1.181443
 C         3.367691        -0.405691         0.082969
 C         2.677344        -1.658077         0.529159
 O         1.362428        -1.098315         0.544088
 O         4.687497         0.125013         0.211285
 C         4.086786         1.400275         0.516658
 C         2.681340         0.774384         0.738865
 H        -0.077953         1.125370         0.837410
 H         0.017301         1.796793        -0.792726
 H        -0.649015         0.108294        -0.665871
 H         2.086340        -0.888878        -1.770218
 H         2.883099         0.691041        -1.926962
 H         2.778667        -2.550898        -0.216111
 H         3.079181        -1.819992         1.587485
 H         4.626392         1.807639         1.347338
 H         4.253113         2.246771        -0.322453
 H         2.324055         0.413571         1.767369
