19
Iteration:  3142charge 0 multiplicity 1
 C         0.136251         0.925743        -0.173908
 C         1.503578         0.316449        -0.009146
 C         2.421151        -0.099249        -1.144653
 C         3.424323        -0.372951         0.047694
 C         2.636213        -1.637795         0.504150
 O         1.275068        -1.110977         0.551989
 O         4.696086         0.060649         0.179353
 C         4.096824         1.439454         0.357326
 C         2.674766         0.853034         0.817362
 H        -0.410652         0.999797         0.830882
 H         0.368501         1.942623        -0.446822
 H        -0.536371         0.259145        -0.802673
 H         2.075345        -1.006099        -1.794923
 H         2.692750         0.795023        -1.804952
 H         2.604921        -2.447479        -0.353186
 H         3.017294        -2.121577         1.482942
 H         4.665418         1.988257         1.186038
 H         4.009400         1.961304        -0.618527
 H         2.547557         0.847645         1.935303
