19
Iteration:  3111
 C         0.049644         0.806884        -0.196903
 C         1.538574         0.350855        -0.097279
 C         2.445324        -0.000940        -1.213302
 C         3.425080        -0.443070         0.015450
 C         2.653301        -1.632701         0.611775
 O         1.266460        -0.953428         0.673626
 O         4.697995         0.086842         0.058460
 C         4.123550         1.372192         0.478470
 C         2.689943         0.736315         0.801904
 H        -0.462909         0.703170         0.820904
 H         0.129505         1.858273        -0.509185
 H        -0.459326         0.297924        -1.137216
 H         2.108777        -0.488664        -2.155821
 H         2.944803         0.928619        -1.676157
 H         2.417321        -2.519989        -0.079503
 H         3.003513        -2.142149         1.569803
 H         4.668475         1.684699         1.321292
 H         4.073075         1.987366        -0.435789
 H         2.332289         0.794846         1.868564
