19
Iteration:   332
 C         0.030762         0.814902        -0.209082
 C         1.471707         0.361303        -0.018466
 C         2.469134        -0.037666        -1.214353
 C         3.388423        -0.361319         0.021533
 C         2.735520        -1.617120         0.553223
 O         1.279948        -1.177529         0.462109
 O         4.641039         0.130919         0.086474
 C         4.104927         1.429480         0.559869
 C         2.697472         0.847910         0.875126
 H        -0.554720         0.817500         0.785521
 H         0.043723         1.820223        -0.678250
 H        -0.457235         0.094578        -0.873587
 H         2.034805        -0.825662        -1.670063
 H         3.121646         0.716292        -1.671586
 H         2.879649        -2.479099        -0.057153
 H         3.034787        -1.869664         1.540644
 H         4.866498         1.768244         1.426939
 H         4.336838         2.173736        -0.219299
 H         2.466847         0.790888         1.917805
