19
Iteration:  4283charge 0 multiplicity 1
 C         0.066944         0.878234        -0.262213
 C         1.464974         0.290148        -0.006370
 C         2.434389         0.073106        -1.153256
 C         3.423676        -0.402707        -0.009934
 C         2.648312        -1.686811         0.595262
 O         1.315035        -1.070912         0.675264
 O         4.677468         0.039369         0.020590
 C         4.094414         1.455643         0.476072
 C         2.706766         0.807916         0.757333
 H        -0.358924         0.925161         0.796548
 H         0.254247         1.859116        -0.792988
 H        -0.643767         0.280653        -0.838958
 H         2.180874        -0.659938        -1.985064
 H         3.013143         0.922478        -1.721989
 H         2.489653        -2.736355         0.143985
 H         2.960860        -2.010916         1.674884
 H         4.779760         1.610263         1.306383
 H         4.164235         2.214085        -0.276071
 H         2.494258         0.624997         1.893679
