19
Iteration:  1040
 C         0.142563         0.839166        -0.242178
 C         1.427162         0.240975        -0.064127
 C         2.439905        -0.001344        -1.216362
 C         3.362859        -0.422783         0.028361
 C         2.717831        -1.662459         0.565379
 O         1.265663        -1.016714         0.543057
 O         4.693455         0.220188         0.175546
 C         4.089841         1.395000         0.512923
 C         2.711296         0.752313         0.818649
 H        -0.362604         0.656322         0.761688
 H         0.092779         1.853929        -0.650234
 H        -0.331402         0.088982        -0.908967
 H         2.059585        -0.788801        -1.915639
 H         2.782858         0.895506        -1.815845
 H         2.632003        -2.565550        -0.194626
 H         3.095102        -2.088716         1.606135
 H         4.535829         1.878052         1.425125
 H         4.075380         2.235009        -0.405259
 H         2.665340         0.407178         1.868384
