19
Iteration:  2682charge 0 multiplicity 1
 C         0.111749         0.824660        -0.315932
 C         1.499732         0.332078         0.034789
 C         2.462098        -0.042449        -1.138953
 C         3.335804        -0.420834         0.129635
 C         2.661191        -1.659245         0.547428
 O         1.334972        -0.992221         0.628972
 O         4.612727         0.068627        -0.011250
 C         4.142646         1.423733         0.463660
 C         2.709961         0.816636         0.847043
 H        -0.364705         1.219141         0.604238
 H         0.068400         1.623340        -1.201000
 H        -0.547591        -0.004608        -0.644669
 H         2.079005        -0.675646        -1.960835
 H         2.734464         0.971064        -1.617985
 H         2.676560        -2.525384        -0.120595
 H         3.015441        -2.135298         1.456168
 H         4.731990         1.771138         1.243744
 H         4.218193         2.251397        -0.244829
 H         2.436352         0.500442         1.891400
