19
Iteration:  3254
 C         0.096964         0.779373        -0.257201
 C         1.474027         0.274944        -0.027597
 C         2.390209         0.081622        -1.159705
 C         3.309489        -0.406073         0.039727
 C         2.621645        -1.627720         0.532412
 O         1.376723        -0.986134         0.623471
 O         4.695839         0.021576         0.112079
 C         4.104460         1.420097         0.397633
 C         2.733717         0.765733         0.888615
 H        -0.539883         0.782250         0.633758
 H         0.197437         1.849944        -0.627696
 H        -0.488367         0.206758        -1.114612
 H         2.295912        -0.401969        -2.120058
 H         2.950788         1.015518        -1.504671
 H         2.572243        -2.682452         0.062669
 H         3.018550        -1.817501         1.604334
 H         4.587610         1.954939         1.099709
 H         4.076454         1.830757        -0.646751
 H         2.691245         0.747950         1.981156
