19
Iteration:  4990
 C         0.141649         0.990086        -0.111024
 C         1.481779         0.283858        -0.035457
 C         2.440927        -0.033438        -1.184823
 C         3.335733        -0.407480         0.103994
 C         2.704992        -1.730197         0.543381
 O         1.276979        -1.143302         0.527788
 O         4.667617         0.110013         0.081696
 C         4.149134         1.456825         0.388156
 C         2.655154         0.814602         0.818679
 H        -0.116150         1.329900         0.944954
 H         0.103881         1.900656        -0.785180
 H        -0.696990         0.360492        -0.482062
 H         2.055000        -0.772171        -1.843696
 H         3.025264         0.594843        -1.872548
 H         2.679004        -2.451837        -0.309359
 H         2.803581        -2.025774         1.616309
 H         4.472063         1.986580         1.319749
 H         4.474180         2.002552        -0.429170
 H         2.462115         0.623823         1.910832
