19
Iteration:  1456charge 0 multiplicity 1
 C         0.139569         0.959123        -0.247816
 C         1.533851         0.341025        -0.035939
 C         2.443848        -0.074777        -1.252639
 C         3.410595        -0.436525         0.098726
 C         2.701877        -1.729264         0.575662
 O         1.332751        -1.074637         0.503190
 O         4.683878         0.149800         0.127488
 C         3.940057         1.475432         0.503821
 C         2.681858         0.722045         0.869944
 H        -0.527057         1.129381         0.648222
 H         0.295712         2.023791        -0.629977
 H        -0.451460         0.405788        -1.046175
 H         2.001837        -0.991550        -1.795042
 H         2.764561         0.758582        -1.763943
 H         2.635896        -2.595218        -0.012525
 H         3.033369        -1.900606         1.598027
 H         4.638858         1.879276         1.257220
 H         3.774409         2.076752        -0.310135
 H         2.640135         0.437906         1.920559
