19
Iteration:  4225charge 0 multiplicity 1
 C         0.231655         1.086994        -0.057124
 C         1.484731         0.258885        -0.084660
 C         2.455293        -0.099177        -1.227136
 C         3.425942        -0.456493         0.150567
 C         2.631533        -1.726412         0.611216
 O         1.273216        -1.194767         0.510967
 O         4.666681         0.213445         0.120415
 C         4.014939         1.451144         0.325113
 C         2.675073         0.736609         0.758684
 H        -0.229657         1.072400         0.883394
 H         0.376308         2.114081        -0.136458
 H        -0.438378         0.687818        -0.784924
 H         2.277891        -0.899294        -1.959769
 H         2.994661         0.746330        -1.620775
 H         2.643395        -2.565642        -0.054188
 H         2.737664        -1.945364         1.667255
 H         4.516416         2.070523         1.050072
 H         3.835528         2.123158        -0.570560
 H         2.505949         0.782344         1.799256
