19
Iteration:   418charge 0 multiplicity 1
 C         0.233159         0.961565        -0.222054
 C         1.503317         0.275783        -0.052580
 C         2.406151        -0.068226        -1.179319
 C         3.374696        -0.421100         0.027776
 C         2.787260        -1.689827         0.574598
 O         1.254113        -1.150095         0.466727
 O         4.671263         0.260139         0.112442
 C         3.941061         1.470511         0.522621
 C         2.668692         0.682881         0.851640
 H        -0.362851         1.038681         0.755647
 H         0.333472         1.986378        -0.643304
 H        -0.408856         0.318905        -0.835988
 H         2.222527        -0.896926        -1.810907
 H         2.875310         0.753970        -1.773585
 H         2.740487        -2.698257         0.032569
 H         3.080546        -1.832648         1.644992
 H         4.498338         1.855159         1.436617
 H         3.940176         2.195281        -0.257107
 H         2.588679         0.491726         2.004760
