19
Iteration:  1682
 C         0.097935         0.933642        -0.203917
 C         1.511625         0.252167        -0.110929
 C         2.472234         0.043622        -1.207055
 C         3.361327        -0.461190         0.059516
 C         2.643786        -1.686794         0.632949
 O         1.315458        -1.119965         0.519600
 O         4.725204         0.118251         0.157453
 C         4.005920         1.492441         0.490492
 C         2.707437         0.737969         0.810887
 H        -0.350667         1.357128         0.702303
 H         0.194577         1.698384        -0.952969
 H        -0.539747         0.238597        -0.777133
 H         2.076144        -0.664684        -1.991046
 H         2.918812         0.842136        -1.638891
 H         2.531160        -2.519672        -0.060318
 H         3.006210        -1.897049         1.577151
 H         4.445228         2.060743         1.272301
 H         4.148002         2.070428        -0.425681
 H         2.607428         0.605392         1.898826
