19
Iteration:  4427charge 0 multiplicity 1
 C         0.132074         0.879841        -0.219023
 C         1.474323         0.274386        -0.004649
 C         2.414540         0.024237        -1.149230
 C         3.358066        -0.424287         0.010873
 C         2.611267        -1.639232         0.562406
 O         1.290425        -1.046239         0.652474
 O         4.721573         0.097100         0.044550
 C         4.104062         1.379362         0.412750
 C         2.689390         0.747425         0.793546
 H        -0.437203         0.782906         0.689710
 H         0.249884         1.932903        -0.471752
 H        -0.387859         0.359421        -1.004008
 H         2.480511        -0.716371        -1.957138
 H         2.679739         0.952331        -1.554091
 H         2.672888        -2.478343        -0.052936
 H         2.973059        -1.717728         1.535278
 H         4.684438         1.678316         1.267222
 H         4.304333         2.154768        -0.260494
 H         2.469465         0.844270         1.873513
