19
Iteration:  3205
 C         0.241504         1.008880        -0.158646
 C         1.521913         0.211955        -0.097384
 C         2.407912        -0.169404        -1.212027
 C         3.363693        -0.425252         0.120618
 C         2.685949        -1.665091         0.676872
 O         1.307692        -1.064796         0.490226
 O         4.624504         0.199056        -0.002841
 C         4.033431         1.483203         0.531534
 C         2.655596         0.749725         0.783621
 H         0.119697         1.166688         0.918594
 H         0.364439         1.970760        -0.631721
 H        -0.613915         0.634992        -0.603119
 H         2.171388        -1.015285        -1.909871
 H         2.574436         0.615174        -1.916622
 H         2.700362        -2.466079        -0.000709
 H         2.858350        -2.148243         1.584385
 H         4.671684         1.552284         1.508517
 H         4.068767         2.221022        -0.245280
 H         2.536064         0.505919         1.853802
