19
Iteration:  4536
 C         0.242384         1.062503        -0.150907
 C         1.487931         0.268824        -0.011640
 C         2.396332        -0.133181        -1.251752
 C         3.354836        -0.385894         0.057970
 C         2.670248        -1.691531         0.563856
 O         1.350450        -1.102867         0.557412
 O         4.630100         0.150384         0.096374
 C         4.013032         1.506632         0.447251
 C         2.696591         0.677102         0.833619
 H        -0.324351         1.010752         0.792328
 H         0.408158         2.070455        -0.590768
 H        -0.471510         0.571763        -0.820352
 H         2.071094        -1.042996        -1.827115
 H         2.623934         0.760575        -1.887875
 H         2.767589        -2.586999        -0.173998
 H         2.894877        -2.019636         1.642195
 H         4.603712         1.883405         1.311809
 H         4.110489         2.047878        -0.573128
 H         2.579404         0.402957         1.904702
