19
Iteration:  1641
 C         0.015360         0.838413        -0.227285
 C         1.448982         0.328422        -0.099141
 C         2.485870        -0.006701        -1.214050
 C         3.358681        -0.389228         0.089214
 C         2.646610        -1.653648         0.547255
 O         1.339436        -1.077632         0.535457
 O         4.703410         0.041923         0.141986
 C         4.089702         1.456657         0.516757
 C         2.725775         0.808307         0.808456
 H        -0.339621         1.049348         0.776831
 H         0.101585         1.804386        -0.754029
 H        -0.556390         0.105253        -0.745383
 H         2.295786        -0.849496        -1.949825
 H         3.007498         0.875527        -1.654508
 H         2.905326        -2.541529        -0.092673
 H         2.761391        -1.870614         1.698885
 H         4.697048         1.773308         1.450714
 H         4.036430         2.263684        -0.333814
 H         2.442363         0.882691         1.806739
