19
Iteration:  1426
 C         0.244620         1.022435        -0.151099
 C         1.480473         0.195052        -0.100887
 C         2.494016        -0.127405        -1.265396
 C         3.403911        -0.383763         0.117342
 C         2.710299        -1.700041         0.569449
 O         1.238014        -1.165375         0.546205
 O         4.680762         0.204127         0.170485
 C         3.996421         1.450406         0.452038
 C         2.591281         0.767202         0.761533
 H        -0.350537         1.053922         0.756630
 H         0.466787         2.151336        -0.273672
 H        -0.395830         0.826974        -1.019577
 H         2.326198        -0.886801        -2.047058
 H         2.685189         0.817528        -1.704837
 H         2.673852        -2.573775        -0.121983
 H         3.040121        -1.981954         1.557276
 H         4.585277         1.933807         1.304364
 H         3.966524         2.205255        -0.342038
 H         2.535361         0.651043         1.926370
