19
Iteration:  4190
 C         0.134967         1.006852        -0.114914
 C         1.466810         0.239142        -0.037166
 C         2.397750        -0.106962        -1.212250
 C         3.374371        -0.452246         0.029246
 C         2.670648        -1.585892         0.599074
 O         1.367776        -1.024036         0.495119
 O         4.665052         0.146525         0.118111
 C         4.096521         1.381435         0.443749
 C         2.681031         0.712574         0.796644
 H        -0.317232         1.023753         0.817983
 H         0.233305         1.871022        -0.730737
 H        -0.576993         0.420743        -0.698705
 H         2.200756        -0.911446        -1.922420
 H         2.739714         0.716573        -1.805643
 H         2.748708        -2.566658         0.179262
 H         2.743808        -1.897592         1.655569
 H         4.646217         1.845537         1.312958
 H         3.828141         2.051769        -0.434305
 H         2.654908         0.659836         1.857121
