19
Iteration:  1531
 C         0.097086         0.957298        -0.172081
 C         1.525976         0.338151        -0.108919
 C         2.468573        -0.078547        -1.272323
 C         3.367000        -0.432017        -0.017950
 C         2.695681        -1.672861         0.586452
 O         1.352732        -1.069770         0.527168
 O         4.691469         0.096167         0.208988
 C         3.989593         1.497431         0.517522
 C         2.680757         0.736374         0.829281
 H        -0.450613         0.945493         0.739719
 H         0.018758         1.860579        -0.764126
 H        -0.453608         0.166575        -0.648226
 H         2.109941        -0.930450        -2.006126
 H         2.837637         0.735285        -1.817151
 H         2.714641        -2.593927        -0.045403
 H         2.873404        -2.118151         1.615419
 H         4.402036         1.933608         1.436079
 H         4.002470         2.145515        -0.372246
 H         2.635529         0.795870         1.838758
