19
Iteration:  4806
 C         0.232256         1.086853        -0.125226
 C         1.510569         0.208815         0.019675
 C         2.395266        -0.104939        -1.196992
 C         3.395013        -0.444984         0.001755
 C         2.655117        -1.692780         0.565536
 O         1.309191        -1.104406         0.519876
 O         4.647819         0.208498         0.114362
 C         3.987128         1.451703         0.438433
 C         2.733740         0.635687         0.813563
 H        -0.199501         1.557327         0.821610
 H         0.386884         2.048665        -0.720029
 H        -0.463735         0.494546        -0.698123
 H         1.988531        -0.837874        -1.925137
 H         2.663663         0.871716        -1.728903
 H         2.445488        -2.566733        -0.074254
 H         2.872548        -2.051195         1.598358
 H         4.698989         2.122205         1.075413
 H         4.026522         2.080998        -0.520471
 H         2.648842         0.435890         1.921848
