19
Iteration:  2934charge 0 multiplicity 1
 C         0.140807         0.904057        -0.239196
 C         1.480816         0.340353        -0.074525
 C         2.359858        -0.097613        -1.270459
 C         3.402644        -0.377902         0.016017
 C         2.613885        -1.699434         0.549684
 O         1.340197        -0.999750         0.679742
 O         4.714900         0.128158         0.086964
 C         4.104424         1.412185         0.457167
 C         2.685273         0.756997         0.928740
 H        -0.562041         0.809157         0.631506
 H         0.177150         1.973238        -0.469697
 H        -0.339244         0.307063        -0.968272
 H         1.965512        -0.975209        -1.849999
 H         2.652911         0.719136        -1.909432
 H         2.745872        -2.486015        -0.156266
 H         2.818553        -2.085150         1.519458
 H         4.689649         1.925859         1.163748
 H         4.080740         2.078756        -0.460953
 H         2.728547         0.331554         1.926776
