19
Iteration:  2497
 C         0.034972         0.830632        -0.229239
 C         1.471088         0.353153        -0.105143
 C         2.447327         0.016227        -1.185074
 C         3.392063        -0.449886         0.028435
 C         2.629458        -1.636042         0.636204
 O         1.291362        -1.010664         0.572471
 O         4.723016         0.062979         0.074097
 C         4.067736         1.425266         0.480569
 C         2.772570         0.768132         0.862238
 H        -0.320670         1.083181         0.753444
 H         0.137541         1.659661        -0.997037
 H        -0.540151         0.009690        -0.680055
 H         2.183658        -0.672615        -2.078783
 H         2.950931         0.822512        -1.672137
 H         2.668994        -2.692026         0.158316
 H         2.885795        -1.876981         1.726614
 H         4.690148         1.920059         1.253993
 H         4.083897         2.012358        -0.511646
 H         2.536093         0.720086         1.944508
