19
Iteration:  3686
 C         0.020588         0.905222        -0.224356
 C         1.500412         0.333726        -0.038055
 C         2.423781         0.012190        -1.326472
 C         3.339758        -0.372672         0.025095
 C         2.708034        -1.668041         0.565977
 O         1.331908        -1.022655         0.646751
 O         4.710548         0.022061         0.156720
 C         4.066162         1.387307         0.462246
 C         2.709550         0.752175         0.819200
 H        -0.395908         1.175943         0.760825
 H        -0.080233         1.860311        -0.636489
 H        -0.587746         0.107147        -0.632786
 H         2.144925        -0.675651        -2.051669
 H         2.845878         0.899061        -1.689579
 H         2.777734        -2.483643        -0.161039
 H         3.159747        -1.972384         1.521856
 H         4.587159         1.887580         1.270191
 H         4.356908         1.898477        -0.404088
 H         2.581280         0.623377         1.864547
