19
Iteration:  2416
 C         0.228109         1.018250        -0.205068
 C         1.449061         0.271204        -0.032706
 C         2.534125        -0.121103        -1.221185
 C         3.416587        -0.417693         0.084973
 C         2.633146        -1.634883         0.692745
 O         1.315984        -1.077338         0.518131
 O         4.666283         0.137084         0.015665
 C         3.929169         1.422353         0.424801
 C         2.648553         0.687710         0.828893
 H        -0.268184         0.769021         0.828760
 H         0.342354         2.104688        -0.268080
 H        -0.425845         0.533011        -0.998145
 H         2.386360        -0.761554        -2.076977
 H         2.824703         0.983940        -1.427763
 H         2.702227        -2.644071         0.120307
 H         2.960593        -1.687596         1.721841
 H         4.435358         1.847070         1.288279
 H         3.992013         2.107933        -0.428583
 H         2.555910         0.588411         1.921209
