19
Iteration:  3475charge 0 multiplicity 1
 C         0.254474         1.057396        -0.178238
 C         1.480228         0.212634        -0.052134
 C         2.517549        -0.073641        -1.117567
 C         3.397478        -0.472352         0.075552
 C         2.614077        -1.727614         0.587991
 O         1.261046        -1.093080         0.535839
 O         4.682040         0.225819         0.067835
 C         3.898294         1.436482         0.381215
 C         2.763169         0.643535         0.837296
 H        -0.132489         1.327596         0.774384
 H         0.555144         2.085740        -0.472056
 H        -0.457993         0.609892        -0.881370
 H         2.171467        -0.806682        -1.865298
 H         2.653219         0.918349        -1.497123
 H         2.664313        -2.612136        -0.061553
 H         2.887355        -2.048598         1.617752
 H         4.431427         2.158152         1.067295
 H         3.720931         2.083054        -0.627279
 H         2.603059         0.747071         1.973730
