19
Iteration:  3866charge 0 multiplicity 1
 C         0.057246         0.856851        -0.227996
 C         1.486844         0.292808        -0.063897
 C         2.458745         0.005975        -1.200496
 C         3.287600        -0.432140        -0.052626
 C         2.695765        -1.615785         0.569126
 O         1.288995        -1.045869         0.628775
 O         4.655412         0.043844         0.064848
 C         4.207570         1.372343         0.534903
 C         2.721922         0.851058         0.853098
 H        -0.479262         1.123141         0.687810
 H         0.220605         1.886740        -0.662432
 H        -0.667278         0.226879        -0.830175
 H         2.239555        -0.749120        -2.052095
 H         2.979995         0.862703        -1.729659
 H         2.601985        -2.682018         0.069592
 H         3.118178        -1.828097         1.579625
 H         4.714990         1.848964         1.374753
 H         4.062683         2.105912        -0.324857
 H         2.398150         0.771829         1.941929
