19
Iteration:  1564
 C         0.179927         1.080324        -0.212698
 C         1.480953         0.221710        -0.084655
 C         2.539147        -0.074639        -1.153563
 C         3.375214        -0.408483         0.113582
 C         2.638113        -1.723869         0.629954
 O         1.300306        -1.207502         0.479077
 O         4.680543         0.174887         0.089440
 C         3.942876         1.507430         0.422221
 C         2.670925         0.716920         0.878342
 H        -0.291851         0.986371         0.735701
 H         0.462045         2.065224        -0.491001
 H        -0.320798         0.630048        -1.028392
 H         2.296063        -0.793928        -2.039395
 H         2.778786         0.870831        -1.565621
 H         2.669999        -2.563940        -0.107790
 H         2.957689        -1.991745         1.726976
 H         4.451920         2.078611         1.236242
 H         4.025898         2.171580        -0.493530
 H         2.636399         0.739073         1.909482
