19
Iteration:  2205
 C         0.039072         0.881313        -0.159047
 C         1.479367         0.271143        -0.166548
 C         2.523343         0.040297        -1.183922
 C         3.382838        -0.414699        -0.035485
 C         2.723925        -1.640439         0.643419
 O         1.252503        -1.049667         0.584347
 O         4.673710         0.043192         0.093976
 C         4.056243         1.425418         0.498485
 C         2.696969         0.783693         0.810225
 H        -0.406718         0.991236         0.832987
 H         0.039353         1.897323        -0.709953
 H        -0.595148         0.183347        -0.776438
 H         2.502477        -0.725943        -1.976797
 H         2.982399         0.951741        -1.521186
 H         2.828702        -2.587852         0.030547
 H         3.049169        -1.893500         1.697083
 H         4.595645         2.113240         1.299634
 H         4.132367         1.896494        -0.436590
 H         2.516200         0.625413         1.917439
