19
Iteration:  3688
 C         0.013104         0.885356        -0.224317
 C         1.491373         0.355364        -0.027352
 C         2.423612         0.000619        -1.315165
 C         3.356453        -0.376751         0.014360
 C         2.701509        -1.648040         0.563279
 O         1.346581        -1.010518         0.647280
 O         4.690405         0.020832         0.162500
 C         4.068689         1.384671         0.478534
 C         2.717001         0.738296         0.811690
 H        -0.375574         1.136653         0.757646
 H        -0.057943         1.848779        -0.672478
 H        -0.619881         0.126466        -0.680397
 H         2.097611        -0.685892        -2.087123
 H         2.866015         0.894823        -1.683329
 H         2.768675        -2.475482        -0.232363
 H         3.115152        -2.006240         1.528413
 H         4.602308         1.931255         1.274633
 H         4.412966         1.918217        -0.515676
 H         2.626060         0.582355         1.845041
