19
Iteration:   265charge 0 multiplicity 1
 C         0.142658         1.025585        -0.160414
 C         1.476338         0.273554        -0.048326
 C         2.429319        -0.025778        -1.149934
 C         3.421861        -0.454697         0.100256
 C         2.747535        -1.716545         0.522589
 O         1.317917        -1.162695         0.443756
 O         4.712588         0.238159         0.151367
 C         3.930917         1.451346         0.406164
 C         2.682476         0.652375         0.882867
 H        -0.176232         1.285085         0.831406
 H         0.244921         1.942179        -0.867967
 H        -0.608799         0.400366        -0.715861
 H         1.967776        -0.800814        -1.663453
 H         2.923031         0.709684        -1.796675
 H         2.760689        -2.532506        -0.170162
 H         2.972752        -2.062534         1.493949
 H         4.487159         2.085563         1.230611
 H         3.746414         2.182698        -0.401101
 H         2.513164         0.619923         1.996024
