19
Iteration:  4365charge 0 multiplicity 1
 C         0.221020         1.070105        -0.085802
 C         1.466224         0.188172        -0.066034
 C         2.455077        -0.138396        -1.265021
 C         3.332593        -0.365666         0.047253
 C         2.686693        -1.721493         0.587355
 O         1.283365        -1.128408         0.549815
 O         4.658544         0.115243         0.117741
 C         4.003794         1.517329         0.357204
 C         2.707734         0.753742         0.848128
 H        -0.109347         1.275969         0.946937
 H         0.511748         2.097561        -0.365341
 H        -0.657774         0.680949        -0.761937
 H         2.588982        -0.915719        -1.975061
 H         2.877050         0.810337        -1.584003
 H         2.773359        -2.687327        -0.031182
 H         2.781694        -2.019993         1.680147
 H         4.693118         2.001170         1.128339
 H         3.785892         2.131996        -0.563273
 H         2.491631         0.694317         1.862908
