19
Iteration:  3387charge 0 multiplicity 1
 C         0.081480         0.812106        -0.157353
 C         1.468486         0.302481        -0.046936
 C         2.448249         0.023878        -1.217643
 C         3.334157        -0.424535         0.093120
 C         2.607923        -1.659898         0.519345
 O         1.330308        -0.986398         0.590854
 O         4.731327         0.115167         0.120419
 C         4.123229         1.403896         0.396381
 C         2.697541         0.718081         0.832118
 H        -0.378390         1.037765         0.749253
 H         0.120755         1.727893        -0.745280
 H        -0.386366         0.246167        -0.934475
 H         2.130053        -0.743034        -1.949074
 H         2.877006         0.915665        -1.555235
 H         2.590685        -2.576315        -0.099423
 H         2.929015        -1.986664         1.539452
 H         4.721169         1.771227         1.199194
 H         4.147723         2.129545        -0.417549
 H         2.419700         0.816762         1.904975
