19
Iteration:  3470
 C         0.243508         1.054792        -0.190204
 C         1.493116         0.228755        -0.035650
 C         2.531200        -0.065647        -1.135024
 C         3.390153        -0.440185         0.114063
 C         2.586099        -1.728974         0.629262
 O         1.266853        -1.116818         0.531048
 O         4.694788         0.266010         0.033639
 C         3.964425         1.420300         0.364107
 C         2.696870         0.644001         0.859629
 H        -0.282308         1.139852         0.847180
 H         0.599090         2.042419        -0.476340
 H        -0.560117         0.617304        -0.815218
 H         2.210660        -0.747637        -1.960789
 H         2.762384         0.913032        -1.640218
 H         2.521779        -2.531974        -0.120441
 H         2.851445        -2.088988         1.614341
 H         4.510992         2.042769         1.033773
 H         3.876554         1.898455        -0.595609
 H         2.548553         0.479896         1.901899
