19
Iteration:  4014charge 0 multiplicity 1
 C         0.107388         0.976500        -0.289966
 C         1.489292         0.356474        -0.001052
 C         2.481395        -0.018990        -1.190075
 C         3.275723        -0.407612        -0.032060
 C         2.713201        -1.672372         0.600532
 O         1.343926        -1.062541         0.641350
 O         4.613263         0.002122         0.047258
 C         4.088964         1.430544         0.458243
 C         2.701311         0.769207         0.877754
 H        -0.444865         0.992164         0.624319
 H        -0.152634         1.810409        -0.917936
 H        -0.320429         0.090247        -0.780395
 H         2.293109        -0.841423        -1.857285
 H         2.937733         0.948323        -1.464822
 H         2.679655        -2.504733        -0.162064
 H         3.099251        -1.862890         1.671786
 H         4.861519         1.702633         1.271950
 H         4.171309         2.213774        -0.359357
 H         2.558168         0.722255         1.973653
