19
Iteration:  4281charge 0 multiplicity 1
 C         0.076342         0.878361        -0.265701
 C         1.458072         0.311943        -0.013037
 C         2.432925         0.074204        -1.162656
 C         3.406317        -0.417472        -0.021640
 C         2.652888        -1.703313         0.603657
 O         1.326434        -1.075639         0.678928
 O         4.676004         0.050398         0.033840
 C         4.104967         1.455622         0.465529
 C         2.703253         0.800951         0.766314
 H        -0.306713         0.919896         0.743927
 H         0.250510         1.822030        -0.726736
 H        -0.626661         0.343484        -0.829494
 H         2.132227        -0.664434        -1.948818
 H         3.006770         0.923419        -1.693434
 H         2.509357        -2.688271         0.181310
 H         2.908630        -2.027297         1.622067
 H         4.738352         1.614656         1.326841
 H         4.101579         2.250690        -0.303743
 H         2.518736         0.616849         1.851079
