19
Iteration:  3474
 C         0.252763         1.057081        -0.181415
 C         1.480840         0.215277        -0.050559
 C         2.523713        -0.071252        -1.117733
 C         3.396512        -0.464711         0.083743
 C         2.608200        -1.729685         0.598007
 O         1.262157        -1.096862         0.534149
 O         4.683617         0.235115         0.060777
 C         3.909292         1.428931         0.382140
 C         2.754530         0.641715         0.838587
 H        -0.158680         1.302463         0.790229
 H         0.564963         2.077064        -0.459035
 H        -0.482717         0.603321        -0.872256
 H         2.164904        -0.806216        -1.899350
 H         2.659065         0.923919        -1.515859
 H         2.635222        -2.587828        -0.064579
 H         2.879837        -2.055637         1.596286
 H         4.447631         2.141115         1.055947
 H         3.748115         2.062831        -0.662993
 H         2.588516         0.702967         1.976648
