19
Iteration:  3606
 C         0.227145         1.022303        -0.164557
 C         1.479619         0.189324        -0.022267
 C         2.447745        -0.054391        -1.223204
 C         3.395536        -0.400385         0.047375
 C         2.702812        -1.742102         0.564094
 O         1.249044        -1.073794         0.647371
 O         4.641911         0.126265         0.131686
 C         3.983577         1.513147         0.418678
 C         2.694575         0.688867         0.732928
 H        -0.373239         1.066180         0.749480
 H         0.733209         1.987364        -0.499676
 H        -0.453930         0.848380        -1.028268
 H         2.381498        -0.870608        -2.004197
 H         2.777655         0.862468        -1.790437
 H         2.698942        -2.546354        -0.109579
 H         2.907576        -2.050599         1.581449
 H         4.727628         1.942952         1.091559
 H         3.919778         2.084565        -0.477096
 H         2.536419         0.740101         1.888926
