19
Iteration:  3483
 C         0.291773         1.084318        -0.167037
 C         1.511927         0.218940        -0.016032
 C         2.436925        -0.085614        -1.136735
 C         3.385306        -0.515065         0.023603
 C         2.683748        -1.720603         0.527399
 O         1.261973        -1.090365         0.557410
 O         4.687444         0.148663         0.124171
 C         3.869008         1.529055         0.361990
 C         2.731411         0.671481         0.853806
 H        -0.180625         1.299483         0.839890
 H         0.557697         1.979975        -0.741087
 H        -0.467313         0.656348        -0.883748
 H         2.225799        -0.961456        -1.878967
 H         2.864918         0.807148        -1.673413
 H         2.754520        -2.632492        -0.027363
 H         2.858068        -1.861595         1.546766
 H         4.320259         2.062171         1.195528
 H         3.571455         2.266244        -0.512981
 H         2.671950         0.764266         1.965353
