19
Iteration:  1875charge 0 multiplicity 1
 C         0.193623         1.038330        -0.202345
 C         1.487088         0.284183        -0.004082
 C         2.456609        -0.140418        -1.213009
 C         3.341933        -0.422246         0.027576
 C         2.659079        -1.663501         0.568239
 O         1.341385        -1.123251         0.439745
 O         4.647743         0.195163         0.147904
 C         3.995011         1.482659         0.475147
 C         2.725533         0.664725         0.868957
 H        -0.198325         1.227523         0.778715
 H         0.437094         1.974516        -0.519516
 H        -0.511615         0.543939        -0.856131
 H         2.191160        -1.151033        -1.620917
 H         2.742219         0.569890        -1.892692
 H         2.945163        -2.517734        -0.004090
 H         2.821280        -1.967869         1.626580
 H         4.366133         1.980551         1.426075
 H         3.877886         2.053412        -0.445900
 H         2.485754         0.721308         1.953159
