19
Iteration:  1885
 C         0.232814         0.991644        -0.136662
 C         1.533967         0.255180        -0.089011
 C         2.443759        -0.120613        -1.243397
 C         3.394462        -0.425283         0.036910
 C         2.682577        -1.659617         0.551309
 O         1.247548        -1.118114         0.516657
 O         4.686278         0.169114         0.171881
 C         3.952763         1.511289         0.469426
 C         2.666750         0.738069         0.854917
 H        -0.411504         1.059105         0.711641
 H         0.528297         1.886179        -0.535355
 H        -0.285934         0.490506        -0.917025
 H         1.950947        -0.918527        -1.850149
 H         2.927667         0.514149        -1.868954
 H         2.705634        -2.502140        -0.143262
 H         2.855907        -1.989324         1.593570
 H         4.655218         1.968451         1.266287
 H         4.023732         2.255768        -0.344017
 H         2.510062         0.442977         1.848519
