19
Iteration:   389charge 0 multiplicity 1
 C         0.191738         1.048075        -0.145574
 C         1.484949         0.239438        -0.133084
 C         2.453484        -0.117542        -1.201366
 C         3.380671        -0.373001         0.126836
 C         2.726842        -1.702266         0.497476
 O         1.370635        -1.205416         0.535158
 O         4.639529         0.228795         0.183335
 C         3.919984         1.499462         0.463050
 C         2.622991         0.713344         0.803353
 H        -0.351514         0.846403         0.847351
 H         0.397143         2.090701        -0.194379
 H        -0.438516         0.782882        -0.996739
 H         2.446776        -0.970127        -1.904948
 H         2.873153         0.573281        -1.954600
 H         2.729238        -2.476919        -0.208538
 H         3.039627        -2.028382         1.473955
 H         4.611751         1.876561         1.298461
 H         4.018219         2.097392        -0.487846
 H         2.428995         0.653125         1.803912
