19
Iteration:   610
 C         0.026170         0.815536        -0.201238
 C         1.431490         0.365240        -0.082520
 C         2.513518         0.021227        -1.150224
 C         3.382592        -0.357909         0.062359
 C         2.716425        -1.662249         0.485490
 O         1.290935        -1.111228         0.448219
 O         4.720019         0.118007         0.173944
 C         4.142852         1.433752         0.499786
 C         2.609453         0.766595         0.871805
 H        -0.335652         0.883987         0.855775
 H        -0.167525         1.825057        -0.801194
 H        -0.595139        -0.131785        -0.483235
 H         2.152202        -0.960854        -1.641991
 H         3.127797         0.706001        -1.768107
 H         3.043085        -2.496848        -0.128361
 H         2.907476        -1.871657         1.558299
 H         4.606608         1.991005         1.303592
 H         4.010603         2.073440        -0.460390
 H         2.494325         0.800140         1.880421
