19
Iteration:  4313
 C         0.053787         0.838590        -0.228636
 C         1.520769         0.336330        -0.045983
 C         2.386222        -0.020396        -1.169369
 C         3.354567        -0.365197         0.032991
 C         2.641942        -1.663495         0.604673
 O         1.316585        -1.041699         0.564562
 O         4.648761         0.112384         0.058288
 C         4.185365         1.391420         0.474998
 C         2.721848         0.769568         0.842552
 H        -0.218018         1.187167         0.752478
 H         0.008865         1.752527        -0.757035
 H        -0.605978         0.068134        -0.578401
 H         2.003572        -0.873200        -1.743923
 H         2.955555         0.612290        -1.911475
 H         2.641444        -2.425453        -0.127958
 H         2.935333        -1.801792         1.651015
 H         4.949181         1.756699         1.195746
 H         4.177872         2.177638        -0.380722
 H         2.619398         0.486538         1.897125
