19
Iteration:   395charge 0 multiplicity 1
 C         0.202685         1.019706        -0.140866
 C         1.486497         0.211735        -0.109311
 C         2.437027        -0.142585        -1.227820
 C         3.420139        -0.396549         0.110092
 C         2.708646        -1.654645         0.509375
 O         1.406167        -1.187162         0.504420
 O         4.634641         0.204046         0.155603
 C         3.943713         1.512154         0.493597
 C         2.589955         0.744753         0.826776
 H        -0.422085         1.003436         0.763415
 H         0.588685         2.087194        -0.229879
 H        -0.482989         0.818860        -0.980846
 H         2.215371        -1.074798        -1.804952
 H         2.811995         0.612551        -1.932210
 H         2.874608        -2.486864        -0.293090
 H         2.847147        -2.154786         1.517344
 H         4.402259         2.026448         1.357209
 H         3.971572         2.107214        -0.391893
 H         2.366531         0.762956         1.990118
