19
Iteration:  3221
 C         0.151639         0.961170        -0.170483
 C         1.455370         0.288611        -0.058505
 C         2.400941        -0.175763        -1.217246
 C         3.346992        -0.406672        -0.014281
 C         2.638473        -1.681173         0.530707
 O         1.310802        -1.087737         0.616115
 O         4.695195         0.175779         0.066931
 C         4.114748         1.454493         0.546308
 C         2.726474         0.767509         0.810419
 H        -0.367127         1.208934         0.773937
 H         0.285925         1.906396        -0.789414
 H        -0.509146         0.361648        -0.945761
 H         2.016895        -1.048904        -1.761629
 H         2.940332         0.640029        -1.837511
 H         2.691643        -2.659787        -0.114153
 H         2.988031        -1.786922         1.621828
 H         4.476222         1.873681         1.427302
 H         4.212590         2.288251        -0.213411
 H         2.442450         0.818856         1.884750
