19
Iteration:  2356charge 0 multiplicity 1
 C         0.080015         0.789102        -0.242484
 C         1.514882         0.300511        -0.019331
 C         2.425145         0.002765        -1.269443
 C         3.384970        -0.426154         0.005229
 C         2.651348        -1.642749         0.495288
 O         1.319829        -0.982007         0.637779
 O         4.713654         0.067203         0.172142
 C         4.058628         1.383131         0.488212
 C         2.669766         0.825216         0.845615
 H        -0.241117         1.215970         0.699265
 H         0.081403         1.671741        -0.945798
 H        -0.695528         0.057098        -0.530018
 H         2.270965        -0.752598        -2.115347
 H         2.821291         0.872806        -1.724770
 H         2.455027        -2.514961        -0.078316
 H         3.056087        -1.894990         1.530956
 H         4.700180         1.966213         1.239479
 H         4.212689         1.939437        -0.510256
 H         2.674928         0.804835         1.942423
