19
Iteration:    49
 C         0.055929         0.830670        -0.253317
 C         1.472118         0.371221         0.019443
 C         2.399237         0.000443        -1.208359
 C         3.352534        -0.397089        -0.014506
 C         2.713345        -1.652107         0.563754
 O         1.277398        -1.081040         0.556902
 O         4.776423         0.175023         0.121473
 C         4.076972         1.474086         0.494035
 C         2.737552         0.664284         0.879900
 H        -0.671445         0.522429         0.511215
 H         0.082639         1.911323        -0.466064
 H        -0.309669         0.391903        -1.182505
 H         1.906377        -0.884037        -1.807620
 H         2.781795         0.733169        -1.998083
 H         2.762421        -2.602112        -0.112532
 H         2.994807        -2.011754         1.591161
 H         4.582866         1.979939         1.339631
 H         3.907949         2.150390        -0.309764
 H         2.702073         0.323616         1.910789
