19
Iteration:  2777charge 0 multiplicity 1
 C         0.067969         0.957566        -0.169331
 C         1.466002         0.277567        -0.018256
 C         2.547057        -0.091751        -1.173204
 C         3.356645        -0.438031         0.056063
 C         2.657820        -1.666334         0.663112
 O         1.282055        -1.054024         0.561304
 O         4.747048         0.124623         0.036363
 C         4.037823         1.412443         0.374257
 C         2.671701         0.762747         0.810877
 H        -0.545125         0.853624         0.713839
 H         0.296142         1.983890        -0.494534
 H        -0.436823         0.637649        -1.130862
 H         1.935433        -0.656161        -1.918471
 H         2.964017         0.765698        -1.703514
 H         2.723211        -2.607688         0.047598
 H         2.962175        -1.972490         1.692360
 H         4.584611         1.848942         1.354934
 H         4.066178         2.203297        -0.473187
 H         2.614162         0.750415         1.923624
