19
Iteration:  1172charge 0 multiplicity 1
 C         0.016895         0.918048        -0.234998
 C         1.485408         0.291922        -0.021979
 C         2.460323        -0.072788        -1.226204
 C         3.381121        -0.382142         0.005948
 C         2.653550        -1.598085         0.575129
 O         1.368641        -1.092604         0.511428
 O         4.729873         0.149967         0.165679
 C         4.002763         1.440612         0.518513
 C         2.719320         0.657654         0.823131
 H        -0.169127         1.373062         0.696641
 H         0.250745         1.726348        -0.904053
 H        -0.671684         0.265804        -0.719077
 H         2.138161        -0.851991        -1.897045
 H         2.884567         0.874859        -1.652363
 H         2.765619        -2.505708        -0.032978
 H         2.817088        -1.991471         1.615906
 H         4.380171         2.082511         1.320122
 H         4.016327         2.151197        -0.354653
 H         2.670794         0.403941         1.917314
