19
Iteration:  2115charge 0 multiplicity 1
 C         0.199458         0.880168        -0.234894
 C         1.500022         0.251197        -0.095364
 C         2.449047         0.040843        -1.245508
 C         3.379828        -0.435138         0.001974
 C         2.636953        -1.642950         0.602985
 O         1.322198        -1.114106         0.594809
 O         4.645035         0.112922         0.118384
 C         4.028735         1.468740         0.444344
 C         2.664667         0.775914         0.905833
 H        -0.364718         0.705224         0.718555
 H         0.297825         1.922092        -0.470577
 H        -0.430173         0.257474        -0.995815
 H         2.167771        -0.696751        -1.984272
 H         2.794855         1.021539        -1.772367
 H         2.605640        -2.546014        -0.046608
 H         2.844080        -1.981359         1.687425
 H         4.621367         1.784627         1.315438
 H         4.415116         2.130532        -0.273007
 H         2.554501         0.864896         1.955219
