19
Iteration:  1267
 C         0.223598         0.942999        -0.138550
 C         1.536841         0.251717        -0.056250
 C         2.524058        -0.047555        -1.254069
 C         3.376190        -0.474142         0.024572
 C         2.681159        -1.711077         0.614844
 O         1.285284        -1.089941         0.460433
 O         4.650203         0.123056         0.184703
 C         3.949528         1.504133         0.401078
 C         2.594496         0.771358         0.874366
 H        -0.234768         0.760293         0.916667
 H         0.525316         1.999307        -0.185097
 H        -0.403880         0.659743        -1.044872
 H         2.102122        -0.824301        -1.919294
 H         2.853616         0.972640        -1.757811
 H         2.984646        -2.578951         0.047306
 H         3.087172        -1.834047         1.647466
 H         4.408651         2.077652         1.154545
 H         4.041006         2.086981        -0.539936
 H         2.322656         0.806091         1.863137
