19
Iteration:   731
 C         0.108775         0.873237        -0.205446
 C         1.499303         0.300968        -0.041952
 C         2.496203         0.034295        -1.200088
 C         3.390399        -0.447493         0.009778
 C         2.745898        -1.642929         0.589527
 O         1.314572        -1.062364         0.462145
 O         4.691421         0.179446         0.174869
 C         3.961642         1.362594         0.450683
 C         2.662750         0.696809         0.849699
 H        -0.320728         0.389469         0.738099
 H        -0.119071         2.011936        -0.136716
 H        -0.431949         0.505279        -1.137993
 H         2.251220        -0.717731        -1.947856
 H         2.976635         1.015539        -1.532817
 H         2.776008        -2.613428         0.077963
 H         2.878807        -1.677780         1.708480
 H         4.420179         1.883867         1.209485
 H         3.963652         2.059220        -0.345229
 H         2.421657         0.650600         1.841926
