19
Iteration:  2627
 C         0.121481         0.973044        -0.143462
 C         1.495613         0.249787        -0.126102
 C         2.504581        -0.047769        -1.259836
 C         3.313341        -0.414015         0.105171
 C         2.653227        -1.640523         0.642474
 O         1.338634        -1.112768         0.566398
 O         4.624601         0.103736         0.106916
 C         4.078799         1.400208         0.409739
 C         2.697434         0.805775         0.784572
 H        -0.309411         0.808586         0.851095
 H         0.438775         2.073137        -0.125325
 H        -0.460448         0.523618        -0.970893
 H         2.185537        -0.953984        -1.840179
 H         2.804753         0.831778        -1.866254
 H         2.827480        -2.591678         0.093510
 H         3.088820        -1.664100         1.661197
 H         4.560737         1.855702         1.191531
 H         4.057172         2.076866        -0.445745
 H         2.307599         0.773091         1.822622
