19
Iteration:  3630
 C         0.223664         1.092554        -0.151524
 C         1.600903         0.367664        -0.061037
 C         2.471074        -0.151906        -1.137331
 C         3.414241        -0.485104         0.013647
 C         2.626958        -1.701989         0.627687
 O         1.297396        -1.125893         0.499313
 O         4.689355         0.238474         0.049337
 C         3.905601         1.425094         0.450686
 C         2.644860         0.642051         0.850185
 H        -0.061261         1.119131         0.927801
 H         0.448927         2.057163        -0.608385
 H        -0.634438         0.731718        -0.707467
 H         2.036511        -0.964917        -1.637292
 H         2.875929         0.492028        -1.900665
 H         2.686067        -2.609093         0.068249
 H         2.944431        -1.856561         1.681587
 H         4.531721         2.095931         1.093700
 H         3.738141         1.869825        -0.609994
 H         2.289749         0.513496         1.900858
