19
Iteration:  3629
 C         0.225300         1.096680        -0.150343
 C         1.602695         0.359529        -0.056707
 C         2.473306        -0.153219        -1.134958
 C         3.404380        -0.490494         0.013406
 C         2.622832        -1.696244         0.623117
 O         1.305132        -1.124602         0.506883
 O         4.692482         0.240307         0.052639
 C         3.905191         1.421885         0.436923
 C         2.642987         0.646389         0.849517
 H        -0.063531         1.079286         0.920435
 H         0.443967         2.074370        -0.638954
 H        -0.640660         0.747689        -0.726302
 H         2.020693        -0.976517        -1.681250
 H         2.883886         0.525730        -1.904335
 H         2.678010        -2.579638         0.061022
 H         2.958245        -1.859985         1.659930
 H         4.472613         2.101871         1.116825
 H         3.778262         1.856412        -0.559313
 H         2.278271         0.475657         1.923103
