19
Iteration:  4477charge 0 multiplicity 1
 C         0.138498         0.904838        -0.129819
 C         1.550388         0.274466        -0.027197
 C         2.438936        -0.023564        -1.208575
 C         3.390684        -0.382724        -0.042701
 C         2.619497        -1.681062         0.619570
 O         1.257287        -1.045122         0.535269
 O         4.748354         0.120227         0.100815
 C         4.035997         1.373187         0.454153
 C         2.692827         0.761528         0.821159
 H        -0.134569         1.262884         0.930160
 H         0.092816         1.846443        -0.762664
 H        -0.645938         0.166410        -0.489739
 H         2.056359        -0.706406        -1.970576
 H         2.803843         0.871680        -1.776850
 H         2.603927        -2.604015        -0.063654
 H         2.832690        -1.856925         1.732881
 H         4.624566         2.043196         1.101198
 H         4.081105         1.978224        -0.510808
 H         2.485084         0.585657         1.890401
