19
Iteration:  4211
 C         0.235909         1.051291        -0.042485
 C         1.531853         0.321207        -0.113323
 C         2.552465        -0.051269        -1.228064
 C         3.315072        -0.457187         0.011096
 C         2.690493        -1.673800         0.691702
 O         1.272120        -1.160178         0.523655
 O         4.682103         0.098453         0.112650
 C         3.943687         1.496850         0.347836
 C         2.612961         0.713424         0.801944
 H        -0.081743         0.876076         0.950343
 H         0.434950         2.006578        -0.497223
 H        -0.558754         0.649288        -0.690422
 H         2.071719        -0.769274        -1.871782
 H         2.854955         0.780527        -1.820869
 H         2.961938        -2.511235         0.113172
 H         2.929515        -2.031580         1.664474
 H         4.538468         1.906189         1.201561
 H         3.910860         2.088328        -0.624968
 H         2.368089         0.692641         1.865645
