19
Iteration:  2955charge 0 multiplicity 1
 C         0.048296         0.844469        -0.240259
 C         1.483824         0.347971        -0.040304
 C         2.436197        -0.028226        -1.153408
 C         3.332983        -0.498666        -0.033398
 C         2.647360        -1.623464         0.619331
 O         1.278009        -0.975717         0.624515
 O         4.719289         0.117655         0.039286
 C         4.114106         1.410748         0.493112
 C         2.824177         0.721439         0.783303
 H        -0.735325         0.736290         0.532306
 H        -0.010043         1.927565        -0.402272
 H        -0.365861         0.223657        -0.960218
 H         2.098112        -0.759712        -1.923149
 H         2.771390         0.878823        -1.673407
 H         2.623358        -2.601656         0.115971
 H         3.084022        -1.815022         1.563065
 H         4.481032         1.745103         1.425081
 H         4.158807         2.194403        -0.186654
 H         2.587120         0.621207         1.843316
