19
Iteration:  4867
 C         0.145574         0.888454        -0.130838
 C         1.497786         0.306676        -0.003220
 C         2.397459         0.022064        -1.256422
 C         3.415874        -0.441519        -0.062581
 C         2.584328        -1.600963         0.635618
 O         1.200300        -1.066054         0.541561
 O         4.722889         0.112046         0.110861
 C         4.116410         1.428092         0.477693
 C         2.787361         0.716905         0.818432
 H        -0.311376         0.726461         0.851299
 H         0.103083         1.846405        -0.641411
 H        -0.547713         0.176268        -0.702908
 H         1.895752        -0.610458        -2.075226
 H         2.725402         0.873858        -1.843030
 H         2.668851        -2.559223         0.042474
 H         2.866434        -1.955894         1.629979
 H         4.741793         1.924246         1.226576
 H         4.164645         1.929293        -0.478704
 H         2.872756         0.589652         1.906178
