19
Iteration:  4655
 C         0.226713         1.068650        -0.127951
 C         1.526602         0.300348        -0.076704
 C         2.391517        -0.057758        -1.221801
 C         3.362823        -0.479735         0.101966
 C         2.645544        -1.674863         0.548241
 O         1.333101        -1.135319         0.554208
 O         4.713875         0.170518         0.055473
 C         3.932810         1.418544         0.470196
 C         2.696193         0.690937         0.812514
 H        -0.117378         1.247104         0.883394
 H         0.390957         1.883390        -0.856362
 H        -0.604002         0.502246        -0.508824
 H         1.928484        -0.784634        -1.890988
 H         2.981162         0.760930        -1.719101
 H         2.827128        -2.534551        -0.076112
 H         2.895569        -1.829551         1.609844
 H         4.305752         1.959903         1.328713
 H         3.822869         1.989107        -0.422766
 H         2.721628         0.556524         1.914858
