19
Iteration:   384charge 0 multiplicity 1
 C         0.179057         1.041744        -0.147689
 C         1.470470         0.275096        -0.126859
 C         2.518063        -0.095152        -1.206392
 C         3.324522        -0.383029         0.097727
 C         2.754405        -1.739663         0.508207
 O         1.315209        -1.197485         0.559210
 O         4.661565         0.241207         0.207254
 C         3.932379         1.482339         0.420343
 C         2.651721         0.698027         0.772286
 H        -0.266470         0.722724         0.805720
 H         0.276913         2.182483        -0.180614
 H        -0.452733         0.718383        -0.997787
 H         2.398763        -0.979804        -1.857339
 H         2.894424         0.801648        -1.756155
 H         2.739144        -2.617917        -0.249188
 H         3.223144        -1.966804         1.515864
 H         4.520577         1.920158         1.234662
 H         3.934889         2.147579        -0.424451
 H         2.420938         0.528959         1.933453
