19
Iteration:  2758charge 0 multiplicity 1
 C         0.248312         1.024509        -0.063989
 C         1.456206         0.215132        -0.191328
 C         2.489051        -0.154738        -1.226397
 C         3.351080        -0.381764         0.047957
 C         2.648987        -1.666561         0.643213
 O         1.299074        -1.105224         0.590671
 O         4.602060         0.149696         0.121059
 C         4.043981         1.467405         0.423061
 C         2.703318         0.748779         0.739030
 H        -0.117374         0.776046         0.937127
 H         0.296655         2.159889        -0.340524
 H        -0.573988         0.777378        -0.747790
 H         2.504862        -0.996224        -1.931665
 H         2.811061         0.743022        -1.857658
 H         2.787376        -2.565603         0.033317
 H         2.887542        -1.812317         1.666184
 H         4.545496         1.914695         1.296375
 H         4.120065         2.040568        -0.574743
 H         2.313987         0.725014         1.769819
