19
Iteration:  1732charge 0 multiplicity 1
 C         0.225122         1.033946        -0.200064
 C         1.539909         0.291009        -0.069322
 C         2.429694        -0.138616        -1.226209
 C         3.335344        -0.422599         0.077605
 C         2.728239        -1.730622         0.594397
 O         1.302163        -1.125602         0.478516
 O         4.675932         0.221389         0.147589
 C         3.931742         1.479179         0.464264
 C         2.682372         0.696617         0.854247
 H        -0.363684         0.935805         0.735208
 H         0.332538         2.095435        -0.410493
 H        -0.282052         0.565801        -1.089635
 H         2.055081        -1.070707        -1.679852
 H         2.700553         0.672920        -1.993233
 H         2.881660        -2.573187        -0.118564
 H         2.589305        -1.919623         1.705974
 H         4.613468         1.799548         1.328069
 H         4.066270         2.239433        -0.319547
 H         2.577332         0.725009         1.981586
