19
Iteration:  3278
 C         0.090613         0.842225        -0.175646
 C         1.513740         0.369217        -0.040136
 C         2.449334         0.009044        -1.119748
 C         3.392791        -0.385757         0.089831
 C         2.610216        -1.596209         0.564009
 O         1.250292        -1.129627         0.548890
 O         4.687830         0.082818         0.075203
 C         4.158336         1.410035         0.418359
 C         2.739091         0.777478         0.799367
 H        -0.567087         0.642641         0.704002
 H        -0.064354         1.967919        -0.549292
 H        -0.457333         0.159679        -0.984161
 H         2.045121        -0.779624        -1.753990
 H         2.818095         0.758031        -1.781481
 H         2.835175        -2.438187        -0.196333
 H         2.821076        -2.029272         1.633276
 H         4.688125         1.882958         1.244767
 H         4.135693         2.004206        -0.493933
 H         2.576940         0.978345         1.858604
