19
Iteration:  3270charge 0 multiplicity 1
 C         0.099046         0.795197        -0.201731
 C         1.508838         0.332286         0.045607
 C         2.503460         0.087211        -1.156894
 C         3.341941        -0.392950         0.031573
 C         2.615236        -1.677601         0.602947
 O         1.239433        -1.103461         0.558143
 O         4.665779         0.075034         0.113163
 C         4.167397         1.402623         0.340331
 C         2.731812         0.860022         0.812998
 H        -0.493370         0.669417         0.732485
 H        -0.050156         1.832919        -0.640748
 H        -0.185806         0.204650        -1.066009
 H         2.092194        -0.689014        -1.837209
 H         2.686941         0.967379        -1.748033
 H         2.689383        -2.491459        -0.117833
 H         2.894171        -2.070826         1.596525
 H         4.757144         1.751712         1.301361
 H         4.149467         2.125860        -0.480118
 H         2.651691         0.783594         1.920931
