19
Iteration:  3771charge 0 multiplicity 1
 C         0.321606         1.100270        -0.149323
 C         1.497142         0.295238        -0.046392
 C         2.366051        -0.122609        -1.222226
 C         3.315531        -0.413193         0.043345
 C         2.625635        -1.633918         0.613248
 O         1.328684        -1.165501         0.524745
 O         4.716709         0.178220         0.118350
 C         3.914049         1.455113         0.448395
 C         2.703014         0.613744         0.786200
 H        -0.217894         1.045579         0.866124
 H         0.676580         2.167961        -0.418566
 H        -0.366863         0.733608        -0.976555
 H         2.006522        -0.989952        -1.860072
 H         2.847895         0.614093        -1.890754
 H         2.770295        -2.588040         0.131943
 H         3.098426        -1.654012         1.620399
 H         4.503660         1.945502         1.290638
 H         3.810000         2.071260        -0.528935
 H         2.515467         0.421428         1.893821
