19
Iteration:  4485
 C         0.143894         0.907683        -0.114693
 C         1.491611         0.292454        -0.055770
 C         2.442431         0.015957        -1.306306
 C         3.358687        -0.497803         0.026662
 C         2.596241        -1.676170         0.623904
 O         1.268252        -1.086901         0.548680
 O         4.740498         0.141430         0.091408
 C         4.016993         1.464414         0.433271
 C         2.754175         0.727922         0.846715
 H        -0.008659         1.429487         0.851122
 H         0.400100         1.828540        -0.678320
 H        -0.806626         0.351617        -0.477529
 H         2.204470        -0.750624        -1.991158
 H         2.974543         0.951979        -1.678173
 H         2.828177        -2.598789         0.137009
 H         2.832239        -1.963800         1.631630
 H         4.657776         1.927881         1.191219
 H         3.866076         1.929677        -0.487463
 H         2.550708         0.714971         1.909366
