19
Iteration:  2499charge 0 multiplicity 1
 C         0.031968         0.807443        -0.240306
 C         1.458659         0.367115        -0.069001
 C         2.450473         0.005615        -1.194245
 C         3.389303        -0.445516         0.035259
 C         2.634090        -1.642391         0.630619
 O         1.287354        -1.003576         0.560640
 O         4.734942         0.062537         0.061373
 C         4.075992         1.425133         0.495114
 C         2.768048         0.777115         0.849860
 H        -0.268821         1.079990         0.735935
 H         0.184487         1.617149        -1.010830
 H        -0.527538         0.017819        -0.651829
 H         2.137773        -0.632230        -2.039705
 H         2.935520         0.840358        -1.732607
 H         2.563095        -2.680653         0.251142
 H         2.866051        -1.848259         1.710378
 H         4.723089         1.931696         1.347664
 H         4.052728         1.991371        -0.495985
 H         2.563773         0.717723         1.942744
