19
Iteration:  4490
 C         0.166602         0.972852        -0.093793
 C         1.451745         0.284649        -0.096243
 C         2.462122         0.027150        -1.292320
 C         3.341458        -0.527072         0.097393
 C         2.604544        -1.670495         0.616210
 O         1.297875        -1.120072         0.546717
 O         4.704430         0.145995         0.088352
 C         4.032006         1.489367         0.395691
 C         2.761248         0.681399         0.842205
 H        -0.104289         1.343407         0.930980
 H         0.390135         1.772854        -0.857175
 H        -0.679071         0.477261        -0.464135
 H         2.264616        -0.786825        -2.074383
 H         2.933287         0.875655        -1.695140
 H         2.718240        -2.668811         0.026617
 H         2.915929        -1.861140         1.722325
 H         4.532919         1.944149         1.267042
 H         3.792905         2.217750        -0.511234
 H         2.649447         0.681977         1.959431
