19
Iteration:  4181
 C         0.098552         0.944515        -0.162082
 C         1.459266         0.305863        -0.046970
 C         2.419103        -0.095784        -1.222303
 C         3.366538        -0.405916        -0.013193
 C         2.664376        -1.651300         0.636833
 O         1.284172        -1.052674         0.540624
 O         4.725194         0.121525         0.104858
 C         4.107343         1.439831         0.461302
 C         2.725221         0.718005         0.821538
 H        -0.357333         1.176076         0.795834
 H         0.221635         1.871231        -0.709804
 H        -0.504970         0.249422        -0.729975
 H         1.908963        -0.915987        -1.755172
 H         2.654459         0.791081        -1.779864
 H         2.770085        -2.429463        -0.174078
 H         2.931976        -1.919291         1.730822
 H         4.715545         1.837729         1.269951
 H         4.256170         2.172518        -0.396967
 H         2.459150         0.512960         1.817032
