19
Iteration:  2403charge 0 multiplicity 1
 C         0.185837         0.896604        -0.197807
 C         1.528307         0.212579        -0.105147
 C         2.466358         0.016647        -1.156736
 C         3.310726        -0.421967         0.084507
 C         2.664646        -1.613057         0.671056
 O         1.270789        -1.086916         0.555002
 O         4.681002         0.128564         0.013203
 C         4.061802         1.419370         0.437423
 C         2.677089         0.752085         0.817295
 H        -0.486170         0.944543         0.742086
 H         0.463382         1.968207        -0.539919
 H        -0.424858         0.495172        -1.019854
 H         2.217107        -0.813611        -1.824483
 H         2.886126         0.843909        -1.748471
 H         2.777247        -2.539101         0.036766
 H         2.749313        -1.890338         1.723024
 H         4.591250         1.833461         1.402202
 H         4.110489         2.206274        -0.275508
 H         2.437847         0.645584         1.899284
