19
Iteration:   217charge 0 multiplicity 1
 C         0.096352         0.926215        -0.109924
 C         1.492671         0.295125        -0.083918
 C         2.393069        -0.037510        -1.294010
 C         3.447895        -0.438048         0.015842
 C         2.714285        -1.695347         0.559982
 O         1.325438        -1.065324         0.510937
 O         4.721085         0.192391         0.170494
 C         3.974904         1.448858         0.541432
 C         2.689237         0.710744         0.765659
 H        -0.342700         0.503734         0.852526
 H         0.001333         2.028254        -0.150905
 H        -0.489517         0.556756        -0.980818
 H         2.271171        -0.797696        -2.073193
 H         2.880940         0.871117        -1.637710
 H         2.705452        -2.737766         0.069828
 H         2.921863        -1.861848         1.683833
 H         4.439166         2.057404         1.230654
 H         3.912614         1.986108        -0.435010
 H         2.546691         0.354469         1.891957
