19
Iteration:  4199
 C         0.191480         0.998775        -0.102501
 C         1.505872         0.285676        -0.097327
 C         2.437192        -0.073809        -1.231996
 C         3.365256        -0.416726         0.082907
 C         2.683762        -1.652089         0.611158
 O         1.346253        -1.100000         0.502177
 O         4.641773         0.102954         0.101381
 C         3.955959         1.385618         0.409693
 C         2.695686         0.743445         0.799831
 H        -0.124943         1.244676         0.925229
 H         0.322267         2.087513        -0.294239
 H        -0.617018         0.502498        -0.672889
 H         2.310065        -0.925523        -1.885449
 H         2.988796         0.717057        -1.739455
 H         2.563639        -2.614447         0.180222
 H         3.022597        -1.524703         1.617132
 H         4.396460         2.052604         1.213663
 H         3.999829         2.034848        -0.495976
 H         2.594602         0.630964         1.925056
