19
Iteration:  2550
 C         0.061358         1.039318        -0.258617
 C         1.453475         0.260930        -0.083895
 C         2.482440        -0.064185        -1.198370
 C         3.367823        -0.442166         0.004278
 C         2.711170        -1.686116         0.637195
 O         1.391961        -1.042182         0.665714
 O         4.658313         0.135051         0.066127
 C         4.063169         1.388306         0.466608
 C         2.616925         0.748337         0.807883
 H        -0.301507         1.266261         0.755379
 H         0.370191         1.870052        -0.947891
 H        -0.572729         0.282451        -0.821736
 H         2.282343        -0.927207        -1.938629
 H         2.787746         0.769675        -1.786010
 H         2.719342        -2.562473        -0.096002
 H         2.988531        -1.993958         1.690662
 H         4.448985         1.528909         1.386063
 H         4.299423         2.170236        -0.241880
 H         2.385423         0.689664         1.889118
