19
Iteration:  3854charge 0 multiplicity 1
 C        -0.022289         0.886073        -0.264660
 C         1.418831         0.313551        -0.003740
 C         2.438425         0.049158        -1.183606
 C         3.421570        -0.391230         0.012282
 C         2.640038        -1.565124         0.627599
 O         1.311008        -1.045402         0.566486
 O         4.756079         0.016534         0.102879
 C         4.138232         1.367162         0.468230
 C         2.753784         0.732042         0.792516
 H        -0.391053         1.005256         0.765278
 H        -0.096976         1.819802        -0.895752
 H        -0.703388         0.109461        -0.799411
 H         2.046448        -0.751741        -1.892709
 H         2.572410         1.063027        -1.653079
 H         2.581257        -2.505030        -0.070720
 H         2.970629        -1.775912         1.666114
 H         4.782358         1.613927         1.312112
 H         4.220130         2.154328        -0.319531
 H         2.774974         0.538700         1.892161
