19
Iteration:  3503
 C         0.228093         1.088063        -0.165014
 C         1.479030         0.294636        -0.061621
 C         2.425240        -0.140361        -1.262448
 C         3.342944        -0.373861         0.038299
 C         2.716610        -1.660935         0.576661
 O         1.365392        -1.144884         0.575153
 O         4.638144         0.146090         0.151736
 C         3.977910         1.406097         0.462015
 C         2.669663         0.699783         0.829667
 H        -0.091937         1.558368         0.815703
 H         0.461817         1.969494        -0.770258
 H        -0.507390         0.541421        -0.788507
 H         1.886920        -1.037261        -1.673481
 H         2.562928         0.708130        -1.956209
 H         2.795988        -2.446262        -0.205904
 H         3.114063        -2.088031         1.486440
 H         4.442227         2.061409         1.144479
 H         3.930796         1.867213        -0.466209
 H         2.563656         0.591935         1.875469
