19
Iteration:   540charge 0 multiplicity 1
 C         0.206870         1.008211        -0.200965
 C         1.478172         0.315632        -0.091977
 C         2.447496        -0.131923        -1.114863
 C         3.365495        -0.425697         0.136333
 C         2.742834        -1.686275         0.583291
 O         1.346241        -1.159943         0.402260
 O         4.647884         0.271047         0.056452
 C         3.969669         1.483084         0.458910
 C         2.626288         0.664202         0.902206
 H        -0.473364         0.808576         0.697390
 H         0.431883         2.049812        -0.271532
 H        -0.352178         0.666753        -1.077234
 H         2.166447        -0.964001        -1.671972
 H         3.009589         0.627798        -1.652561
 H         2.836750        -2.601472        -0.111885
 H         2.917100        -2.071573         1.610827
 H         4.440247         1.863017         1.414398
 H         4.011217         2.221326        -0.262859
 H         2.352491         0.408737         2.000767
