19
Iteration:  3241
 C         0.052303         0.882530        -0.283108
 C         1.450475         0.311997        -0.052865
 C         2.462697         0.047652        -1.203675
 C         3.396288        -0.419496         0.018273
 C         2.702248        -1.604949         0.585910
 O         1.322119        -1.015857         0.683076
 O         4.697051         0.054469         0.116149
 C         4.056714         1.364032         0.431741
 C         2.743629         0.703681         0.815071
 H        -0.525503         0.874694         0.650094
 H         0.118035         1.884147        -0.612244
 H        -0.482253         0.143318        -0.949550
 H         2.018580        -0.770361        -1.809227
 H         2.616586         1.109986        -1.641086
 H         2.664235        -2.343872        -0.249679
 H         3.012662        -1.942237         1.571521
 H         4.722819         1.883890         1.127732
 H         3.972350         2.130216        -0.386356
 H         2.497078         0.496236         1.877732
