19
Iteration:  1954charge 0 multiplicity 1
 C         0.083080         0.839500        -0.237801
 C         1.493864         0.328596         0.046343
 C         2.414309        -0.036575        -1.248891
 C         3.355908        -0.403624         0.080304
 C         2.620609        -1.621587         0.590159
 O         1.331759        -1.072918         0.466747
 O         4.707246         0.096601         0.127613
 C         4.132056         1.448436         0.504320
 C         2.687562         0.768501         0.812343
 H        -0.505499         0.773847         0.657660
 H         0.350466         1.830386        -0.530742
 H        -0.404567         0.158231        -0.958864
 H         1.905394        -0.668718        -1.943773
 H         2.863980         0.807898        -1.908918
 H         2.556579        -2.551569         0.030592
 H         3.000563        -1.784280         1.628741
 H         4.671802         1.926066         1.367862
 H         4.181726         2.215786        -0.316387
 H         2.596433         0.544916         1.999246
