19
Iteration:  3259charge 0 multiplicity 1
 C         0.113420         0.768223        -0.261988
 C         1.475691         0.305875         0.025154
 C         2.419664         0.095473        -1.200023
 C         3.270506        -0.402728         0.046662
 C         2.619476        -1.696250         0.554543
 O         1.340470        -1.016152         0.586235
 O         4.705218         0.035549         0.114638
 C         4.110843         1.409459         0.348191
 C         2.719631         0.844159         0.894862
 H        -0.597392         0.681341         0.595077
 H         0.280998         1.862946        -0.461609
 H        -0.375611         0.072957        -0.915909
 H         2.339293        -0.590844        -2.079734
 H         2.889450         1.014473        -1.374207
 H         2.460836        -2.636563         0.054136
 H         3.020615        -1.777437         1.564811
 H         4.701633         2.040272         1.185150
 H         4.311894         1.985323        -0.560133
 H         2.772094         0.656638         1.987952
