19
Iteration:  2196
 C         0.106541         0.914581        -0.144169
 C         1.418795         0.252092        -0.186736
 C         2.611568         0.018974        -1.231314
 C         3.270783        -0.429814         0.034760
 C         2.714027        -1.662863         0.601570
 O         1.322429        -1.051159         0.615662
 O         4.714820         0.085122         0.101236
 C         4.013310         1.465144         0.493758
 C         2.637182         0.696873         0.783415
 H        -0.035369         1.204683         0.883074
 H         0.214009         1.858591        -0.754457
 H        -0.671610         0.425011        -0.605388
 H         2.324988        -0.721812        -2.028053
 H         2.803710         0.939765        -1.594059
 H         2.788222        -2.664460         0.103140
 H         2.973435        -1.733851         1.637486
 H         4.646018         1.884497         1.365902
 H         4.015848         2.013042        -0.489380
 H         2.366416         0.697317         1.891589
