19
Iteration:   398charge 0 multiplicity 1
 C         0.213455         1.009144        -0.150835
 C         1.481603         0.202719        -0.085105
 C         2.443770        -0.163161        -1.250675
 C         3.411717        -0.409015         0.095076
 C         2.716762        -1.659623         0.520971
 O         1.405886        -1.166344         0.485553
 O         4.646880         0.196618         0.144862
 C         3.951174         1.504897         0.499849
 C         2.581555         0.760433         0.848955
 H        -0.467960         1.040405         0.817102
 H         0.633941         2.004234        -0.265327
 H        -0.484928         0.823572        -0.976061
 H         2.044848        -1.031240        -1.648799
 H         2.773739         0.709079        -1.869504
 H         2.947326        -2.417533        -0.244397
 H         2.798488        -2.154582         1.472368
 H         4.321390         2.134273         1.449543
 H         3.923538         2.188621        -0.372941
 H         2.357349         0.778796         1.907890
