19
Iteration:  4094
 C         0.193517         1.062921        -0.078368
 C         1.541173         0.243159        -0.102039
 C         2.420562        -0.107654        -1.177364
 C         3.350139        -0.441657         0.089162
 C         2.684264        -1.684997         0.646844
 O         1.287886        -1.093522         0.466861
 O         4.669138         0.095738         0.111913
 C         4.000129         1.468760         0.401435
 C         2.704005         0.767514         0.759015
 H        -0.283030         1.005082         0.920902
 H         0.352083         2.069804        -0.494504
 H        -0.645393         0.725408        -0.774193
 H         2.083820        -0.941599        -1.908076
 H         2.844403         0.716100        -1.828762
 H         2.951993        -2.691031         0.154359
 H         2.930343        -1.957512         1.725043
 H         4.514589         1.871170         1.264126
 H         4.061422         2.104506        -0.485317
 H         2.440090         0.872521         1.795688
