19
Iteration:  1930
 C         0.053438         0.876096        -0.270678
 C         1.470811         0.330906         0.004907
 C         2.493298        -0.010030        -1.205487
 C         3.290513        -0.366907         0.069484
 C         2.710428        -1.647003         0.561541
 O         1.275435        -1.057131         0.524887
 O         4.708986         0.065882         0.126360
 C         4.111815         1.394488         0.482971
 C         2.730484         0.776387         0.843633
 H        -0.444442         0.529757         0.627039
 H         0.039565         1.886328        -0.377517
 H        -0.388223         0.231317        -1.010802
 H         2.273113        -0.795280        -1.949273
 H         2.758236         0.856404        -1.774515
 H         2.786764        -2.507382        -0.093415
 H         3.016648        -1.916967         1.609515
 H         4.549420         2.073527         1.328586
 H         4.168047         2.056623        -0.442864
 H         2.449563         0.709513         1.925517
