19
Iteration:  2945
 C         0.020268         0.868419        -0.281001
 C         1.507004         0.340429        -0.010091
 C         2.390786        -0.028135        -1.229344
 C         3.348175        -0.444830        -0.037177
 C         2.604645        -1.674345         0.593629
 O         1.348151        -0.992012         0.656543
 O         4.696058         0.150080         0.085362
 C         4.143996         1.447672         0.509861
 C         2.805988         0.664304         0.824124
 H        -0.407950         0.671117         0.726558
 H         0.036687         1.917587        -0.570160
 H        -0.439054         0.414926        -1.117947
 H         1.933109        -0.902799        -1.774235
 H         2.848550         0.662612        -1.900993
 H         2.339764        -2.550398         0.041398
 H         2.990680        -1.859310         1.566888
 H         4.773096         1.847685         1.258427
 H         4.021902         2.130858        -0.351175
 H         2.638623         0.571374         1.911107
