19
Iteration:  1929charge 0 multiplicity 1
 C         0.047761         0.875238        -0.270554
 C         1.467249         0.329761         0.007971
 C         2.505418        -0.009855        -1.213354
 C         3.295842        -0.368597         0.078085
 C         2.708662        -1.645589         0.559586
 O         1.278979        -1.055361         0.528404
 O         4.707251         0.062714         0.124813
 C         4.112234         1.400905         0.481523
 C         2.716978         0.773865         0.840729
 H        -0.472892         0.557829         0.641957
 H         0.051669         1.901036        -0.360384
 H        -0.390861         0.251334        -1.015812
 H         2.262115        -0.787918        -1.977821
 H         2.797068         0.838862        -1.743746
 H         2.758022        -2.532796        -0.077827
 H         3.055669        -1.934383         1.588368
 H         4.566514         2.079259         1.355051
 H         4.137225         2.054840        -0.454366
 H         2.494603         0.696671         1.883956
