19
Iteration:  2754charge 0 multiplicity 1
 C         0.264562         1.050591        -0.023222
 C         1.472160         0.206643        -0.209007
 C         2.504180        -0.168303        -1.238653
 C         3.351892        -0.363172         0.031338
 C         2.627337        -1.646293         0.632835
 O         1.315477        -1.104710         0.580719
 O         4.631583         0.151734         0.142867
 C         4.003894         1.434420         0.425167
 C         2.677380         0.757767         0.730280
 H        -0.083473         0.834920         0.978001
 H         0.365934         2.019639        -0.375805
 H        -0.518399         0.688420        -0.794054
 H         2.225642        -1.034512        -1.963753
 H         2.642265         0.668655        -1.875652
 H         2.864255        -2.611497         0.084215
 H         2.885561        -1.894454         1.720078
 H         4.570847         2.006228         1.361638
 H         4.073924         2.018605        -0.554334
 H         2.291162         0.800870         1.753692
