19
Iteration:  3490
 C         0.308896         1.103496        -0.176719
 C         1.524535         0.265547         0.039666
 C         2.402357        -0.107966        -1.214785
 C         3.360720        -0.464334         0.014041
 C         2.731109        -1.708130         0.518491
 O         1.286283        -1.116411         0.569386
 O         4.695096         0.107964         0.153935
 C         3.870825         1.573850         0.358201
 C         2.648634         0.685671         0.862491
 H        -0.245003         1.284841         0.776544
 H         0.643025         1.941787        -0.789782
 H        -0.488715         0.564691        -0.688889
 H         2.123279        -0.921621        -1.837901
 H         2.980732         0.522814        -1.894890
 H         2.670675        -2.644230        -0.112337
 H         2.970907        -1.877606         1.609639
 H         4.398189         1.962033         1.209775
 H         3.790145         2.161113        -0.459535
 H         2.577125         0.472185         1.898273
