19
Iteration:  3174charge 0 multiplicity 1
 C         0.187027         1.080629        -0.138326
 C         1.492560         0.320603        -0.034720
 C         2.485067        -0.061098        -1.190841
 C         3.441605        -0.516807        -0.015459
 C         2.621083        -1.677310         0.697911
 O         1.349174        -1.171972         0.493364
 O         4.656726         0.152975         0.121045
 C         3.922875         1.461019         0.379774
 C         2.692676         0.664747         0.789854
 H        -0.054954         1.354668         0.927043
 H         0.343541         2.021667        -0.625500
 H        -0.700937         0.695604        -0.665009
 H         2.125044        -0.833619        -1.970873
 H         2.820592         0.940279        -1.629367
 H         2.573714        -2.685080         0.145746
 H         3.023544        -1.744983         1.737555
 H         4.542594         2.193419         1.057624
 H         3.744507         2.138533        -0.469630
 H         2.663338         0.462785         1.897693
