19
Iteration:  3960charge 0 multiplicity 1
 C         0.105657         1.010175        -0.137279
 C         1.510355         0.336418        -0.112042
 C         2.479520        -0.081212        -1.213764
 C         3.328381        -0.441990         0.060540
 C         2.698457        -1.625545         0.619224
 O         1.313570        -1.096075         0.542842
 O         4.625684         0.095837         0.123003
 C         4.062759         1.391205         0.441357
 C         2.702237         0.731970         0.789176
 H        -0.312524         1.224390         0.848887
 H         0.286035         2.040625        -0.441068
 H        -0.653068         0.457557        -0.683637
 H         2.169520        -0.951292        -1.741735
 H         2.898692         0.609658        -1.941653
 H         2.799422        -2.356127        -0.137200
 H         2.950574        -2.109703         1.554482
 H         4.750399         1.830877         1.216303
 H         4.158129         2.034977        -0.445705
 H         2.561752         0.877824         1.848487
