19
Iteration:  2995
 C         0.098008         0.977446        -0.139187
 C         1.478448         0.329623        -0.079041
 C         2.428093        -0.105828        -1.168611
 C         3.301217        -0.403474         0.068459
 C         2.746628        -1.661007         0.614787
 O         1.301552        -1.126331         0.494550
 O         4.615105         0.081544         0.110066
 C         4.090047         1.428236         0.418253
 C         2.735156         0.821748         0.806812
 H        -0.238528         1.091364         0.856618
 H         0.215383         1.968199        -0.689789
 H        -0.512067         0.363305        -0.846073
 H         2.200145        -0.765518        -1.959433
 H         2.925251         0.795864        -1.654498
 H         2.933142        -2.653234         0.071839
 H         2.896002        -1.813682         1.720777
 H         4.736350         1.811808         1.312824
 H         4.231956         2.060899        -0.527389
 H         2.696381         0.723756         1.879301
