19
Iteration:  1178charge 0 multiplicity 1
 C         0.059836         0.896828        -0.257056
 C         1.464488         0.297774        -0.032571
 C         2.488950        -0.042784        -1.190058
 C         3.328412        -0.444619        -0.007357
 C         2.681793        -1.646408         0.594137
 O         1.365383        -1.053866         0.502857
 O         4.748115         0.139789         0.141084
 C         3.989499         1.457606         0.536207
 C         2.743345         0.696439         0.849620
 H        -0.467307         1.358026         0.713040
 H         0.105318         1.790739        -0.957846
 H        -0.762067         0.226018        -0.697859
 H         2.166285        -0.840770        -1.915749
 H         2.616598         0.952089        -1.727630
 H         2.839716        -2.527770        -0.068024
 H         2.833430        -1.821144         1.663009
 H         4.458016         1.999202         1.378796
 H         3.917536         2.058850        -0.359953
 H         2.697094         0.361180         1.852360
