19
Iteration:   658charge 0 multiplicity 1
 C         0.144081         0.964746        -0.212783
 C         1.483699         0.298758        -0.153905
 C         2.491010        -0.017444        -1.215712
 C         3.400205        -0.407226        -0.007510
 C         2.717204        -1.631266         0.600682
 O         1.318362        -1.155548         0.549317
 O         4.667352         0.216840         0.162202
 C         3.933948         1.366010         0.507569
 C         2.660831         0.655278         0.853020
 H        -0.213343         1.287970         0.774172
 H         0.206461         1.770388        -0.860988
 H        -0.559398         0.286556        -0.602630
 H         2.353981        -0.710106        -1.996880
 H         2.774030         1.024051        -1.489262
 H         2.841169        -2.434816        -0.130375
 H         3.227845        -1.891123         1.513284
 H         4.429862         1.870484         1.406643
 H         3.924124         2.173696        -0.351730
 H         2.558659         0.403237         1.993772
