19
Iteration:  4908
 C         0.146108         0.973342        -0.169207
 C         1.557996         0.329825        -0.021495
 C         2.469980        -0.041272        -1.198845
 C         3.287755        -0.420358         0.080199
 C         2.708424        -1.663561         0.499189
 O         1.311160        -1.092498         0.640932
 O         4.606032         0.049440         0.016439
 C         4.112286         1.396222         0.431795
 C         2.707674         0.845583         0.868979
 H        -0.623607         0.747456         0.619433
 H         0.107887         2.072010        -0.380648
 H        -0.439087         0.429958        -1.090053
 H         2.260028        -0.969816        -1.835831
 H         2.857121         0.939937        -1.531181
 H         2.752747        -2.487675        -0.246211
 H         2.925798        -2.143410         1.463628
 H         4.680369         1.730673         1.291040
 H         3.922049         2.090820        -0.452805
 H         2.290169         0.751703         1.857098
