19
Iteration:  1466charge 0 multiplicity 1
 C         0.108643         0.976096        -0.284652
 C         1.523945         0.313188        -0.010034
 C         2.447829         0.016830        -1.238763
 C         3.377734        -0.479530         0.052305
 C         2.705185        -1.681674         0.621681
 O         1.299037        -1.079350         0.530974
 O         4.701439         0.193609         0.115021
 C         4.009976         1.401499         0.462112
 C         2.686307         0.680499         0.917231
 H        -0.400550         0.880009         0.675693
 H         0.101194         1.910113        -0.854450
 H        -0.336789         0.116089        -0.796050
 H         2.189018        -0.710954        -2.104185
 H         2.933007         0.780482        -1.772777
 H         2.830932        -2.523668        -0.011628
 H         2.833058        -2.056781         1.638320
 H         4.589431         1.897968         1.261914
 H         3.931888         2.027210        -0.377818
 H         2.296561         0.642330         1.867318
