19
Iteration:  1839charge 0 multiplicity 1
 C         0.211734         0.947591        -0.214463
 C         1.527721         0.250582        -0.029995
 C         2.539938         0.037980        -1.228759
 C         3.311336        -0.405326         0.059981
 C         2.646838        -1.670073         0.596303
 O         1.308198        -1.153708         0.533721
 O         4.637312         0.134203         0.105588
 C         3.963753         1.427753         0.480694
 C         2.668351         0.694206         0.808896
 H        -0.133768         1.286397         0.752867
 H         0.411430         1.791926        -0.917376
 H        -0.616010         0.342969        -0.516540
 H         2.463821        -0.664039        -2.025109
 H         2.817486         1.029508        -1.701534
 H         2.652683        -2.687419         0.031972
 H         3.017061        -1.762426         1.641041
 H         4.426340         2.062317         1.380370
 H         4.096718         2.247777        -0.294200
 H         2.584715         0.774117         1.843660
