19
Iteration:   300
 C         0.157013         0.837092        -0.247407
 C         1.464607         0.172036        -0.114254
 C         2.430754         0.026754        -1.222985
 C         3.401699        -0.409165         0.000921
 C         2.735645        -1.619883         0.527591
 O         1.289565        -1.042098         0.616450
 O         4.672468         0.193050         0.096810
 C         4.040337         1.432624         0.589135
 C         2.650612         0.706138         0.830403
 H        -0.126848         1.194510         0.802415
 H         0.174534         1.728573        -0.847954
 H        -0.640315         0.153060        -0.477354
 H         2.095915        -0.652313        -2.082155
 H         2.937584         0.966295        -1.660287
 H         2.623421        -2.448885        -0.113247
 H         3.089321        -1.955166         1.470443
 H         4.672133         1.597699         1.584558
 H         4.047373         2.260573        -0.163779
 H         2.454051         0.504929         1.810563
