19
Iteration:  4871
 C         0.118145         0.887919        -0.139195
 C         1.510650         0.301045         0.013916
 C         2.375929         0.026799        -1.253875
 C         3.433120        -0.453124        -0.067766
 C         2.570408        -1.604121         0.630219
 O         1.201533        -1.063859         0.551875
 O         4.730494         0.112577         0.108565
 C         4.144769         1.405726         0.480742
 C         2.785814         0.711940         0.808720
 H        -0.344994         0.746116         0.839309
 H         0.024508         1.858999        -0.620421
 H        -0.284336         0.168731        -0.774243
 H         2.016575        -0.556263        -2.046218
 H         2.622796         0.903014        -1.864650
 H         2.720183        -2.481229        -0.013058
 H         2.791995        -1.889017         1.682886
 H         4.715152         2.084316         1.188958
 H         4.101603         1.989331        -0.459104
 H         2.746857         0.591981         1.925043
