19
Iteration:  3182charge 0 multiplicity 1
 C         0.203346         1.098107        -0.084086
 C         1.526214         0.293166        -0.054980
 C         2.561527        -0.085396        -1.180108
 C         3.352263        -0.536447        -0.002470
 C         2.663085        -1.631369         0.638767
 O         1.298255        -1.177523         0.519765
 O         4.669288         0.187454         0.048896
 C         3.899783         1.459442         0.434840
 C         2.661383         0.667994         0.787791
 H        -0.097261         1.396606         0.907712
 H         0.398003         1.990304        -0.715724
 H        -0.568979         0.671788        -0.635681
 H         2.223133        -0.796006        -1.932108
 H         3.019243         0.625811        -1.772176
 H         2.755470        -2.618403         0.376927
 H         3.004928        -1.637655         1.637059
 H         4.607987         1.803047         1.263399
 H         3.694179         2.034755        -0.443669
 H         2.358701         0.688749         1.831317
