19
Iteration:  3148
 C         0.192519         0.921874        -0.143783
 C         1.472349         0.292611         0.023966
 C         2.385538        -0.063229        -1.223306
 C         3.400649        -0.430202         0.106479
 C         2.684069        -1.647804         0.503316
 O         1.225878        -1.103017         0.530796
 O         4.732693         0.103710         0.188276
 C         4.080956         1.409103         0.350579
 C         2.674894         0.808544         0.803963
 H        -0.351474         1.095431         0.748312
 H         0.422680         1.946346        -0.554833
 H        -0.454271         0.381030        -0.783794
 H         2.027675        -0.923270        -1.702268
 H         2.705990         0.755979        -1.781647
 H         2.762272        -2.396265        -0.197750
 H         2.993762        -1.857160         1.489039
 H         4.682161         2.082202         0.980613
 H         3.953429         2.052101        -0.520390
 H         2.517083         0.866583         1.864768
