19
Iteration:  2569
 C         0.258041         1.005661        -0.187826
 C         1.542628         0.225256        -0.059238
 C         2.445012        -0.119288        -1.202432
 C         3.326828        -0.435645         0.035475
 C         2.638215        -1.643754         0.591985
 O         1.248809        -1.082054         0.613414
 O         4.723294         0.146765         0.146548
 C         3.952218         1.490282         0.415319
 C         2.713413         0.706775         0.764600
 H        -0.220126         1.049689         0.826289
 H         0.451839         1.937736        -0.606545
 H        -0.507418         0.540162        -0.885669
 H         2.092911        -0.865781        -1.903092
 H         2.848364         0.709220        -1.745941
 H         2.764062        -2.503630        -0.031465
 H         3.089127        -1.860105         1.508307
 H         4.437921         2.131278         1.180176
 H         3.743035         2.034905        -0.502497
 H         2.518997         0.547463         1.808098
