19
Iteration:  3450
 C         0.155472         0.955821        -0.154731
 C         1.499491         0.332211        -0.065513
 C         2.499688        -0.077149        -1.181061
 C         3.329010        -0.428184         0.069502
 C         2.639679        -1.700179         0.592840
 O         1.262191        -1.124369         0.525488
 O         4.696409         0.108384         0.012382
 C         4.060034         1.494725         0.448262
 C         2.703813         0.757099         0.874690
 H        -0.459648         0.867806         0.785186
 H         0.252880         2.020751        -0.297612
 H        -0.366294         0.425287        -0.981334
 H         2.136300        -0.989900        -1.781484
 H         2.997592         0.735130        -1.780312
 H         2.792883        -2.608808         0.034882
 H         2.865927        -1.853995         1.607787
 H         4.630681         1.830925         1.305583
 H         3.963989         2.420330        -0.354145
 H         2.489663         0.902469         1.940143
