19
Iteration:  1326
 C         0.166783         0.897805        -0.250949
 C         1.570275         0.257244        -0.090297
 C         2.440033        -0.036570        -1.193465
 C         3.333104        -0.414520         0.003255
 C         2.634354        -1.598947         0.557597
 O         1.355031        -1.041468         0.577895
 O         4.672031         0.140561         0.132395
 C         3.984270         1.444385         0.532810
 C         2.686078         0.674725         0.847679
 H        -0.373833         1.257058         0.669195
 H         0.204440         1.764031        -1.011814
 H        -0.551127         0.115711        -0.643630
 H         2.204974        -0.802559        -1.999633
 H         2.552199         0.862023        -1.758362
 H         2.848833        -2.429665        -0.171177
 H         2.986460        -1.899053         1.564266
 H         4.535714         1.795196         1.531688
 H         4.180293         2.108852        -0.330262
 H         2.490707         0.465149         2.004972
