19
Iteration:  3045
 C         0.247608         1.061714        -0.098481
 C         1.515396         0.261332        -0.081709
 C         2.563331        -0.078742        -1.190679
 C         3.348379        -0.493929         0.061148
 C         2.646390        -1.673094         0.570367
 O         1.272612        -1.117834         0.618053
 O         4.630084         0.170176         0.116245
 C         3.953494         1.508162         0.355913
 C         2.654396         0.671408         0.792406
 H        -0.189501         1.510950         0.873938
 H         0.610336         1.896558        -0.695466
 H        -0.481867         0.382099        -0.662125
 H         2.240353        -0.908024        -1.887752
 H         2.897726         0.699831        -1.888504
 H         2.716056        -2.428837        -0.215547
 H         2.994266        -2.266472         1.421330
 H         4.410460         1.880938         1.198804
 H         4.025462         2.030733        -0.598126
 H         2.469911         0.791044         1.899793
