19
Iteration:    50
 C         0.061131         0.832977        -0.248998
 C         1.476772         0.363381         0.022643
 C         2.394249         0.000818        -1.214225
 C         3.350605        -0.397603        -0.004651
 C         2.719271        -1.658229         0.565141
 O         1.272936        -1.070636         0.546828
 O         4.774813         0.173907         0.121868
 C         4.074464         1.479018         0.497654
 C         2.744123         0.659906         0.874665
 H        -0.707439         0.500667         0.533327
 H         0.089211         1.899833        -0.484790
 H        -0.324107         0.392429        -1.186719
 H         1.900538        -0.857772        -1.812555
 H         2.779435         0.715069        -2.010524
 H         2.778294        -2.611045        -0.087458
 H         2.996321        -2.004758         1.602224
 H         4.582595         1.962888         1.327683
 H         3.882379         2.187898        -0.352475
 H         2.704913         0.316172         1.966774
