19
Iteration:  1352charge 0 multiplicity 1
 C         0.052556         0.872073        -0.280808
 C         1.482576         0.289325        -0.047055
 C         2.493179         0.036007        -1.181388
 C         3.282517        -0.417295         0.044888
 C         2.736740        -1.687392         0.547293
 O         1.276750        -1.059241         0.613007
 O         4.711227         0.157849         0.117080
 C         4.101690         1.351596         0.518681
 C         2.673302         0.757444         0.798778
 H        -0.442224         1.210424         0.592710
 H         0.039018         1.714945        -0.902671
 H        -0.618259         0.182847        -0.724969
 H         2.445115        -0.659655        -1.938569
 H         2.865110         0.962134        -1.643363
 H         2.978572        -2.508138        -0.173694
 H         3.039050        -2.072175         1.509195
 H         4.500396         1.846618         1.386912
 H         4.360398         2.070608        -0.354608
 H         2.440579         0.763311         1.864424
