19
Iteration:   714charge 0 multiplicity 1
 C         0.118296         0.917658        -0.195139
 C         1.489546         0.244209        -0.094796
 C         2.567150        -0.011129        -1.152388
 C         3.405392        -0.427414         0.083828
 C         2.654465        -1.728680         0.590978
 O         1.308483        -1.122195         0.469098
 O         4.670226         0.195720         0.085368
 C         3.955391         1.528219         0.481272
 C         2.666768         0.696972         0.892313
 H        -0.560421         0.828504         0.625696
 H         0.397276         1.920557        -0.264328
 H        -0.346546         0.713519        -1.125064
 H         2.226783        -0.735846        -1.916927
 H         2.912008         0.786215        -1.746893
 H         2.700286        -2.594472        -0.099989
 H         3.062996        -2.013195         1.553552
 H         4.563149         2.089155         1.311070
 H         3.811666         2.193176        -0.451536
 H         2.577216         0.506055         2.066586
