19
Iteration:   468
 C         0.100556         0.776792        -0.229645
 C         1.514988         0.319849        -0.033611
 C         2.475734        -0.035957        -1.214254
 C         3.304165        -0.310823         0.071396
 C         2.647479        -1.599477         0.461398
 O         1.364835        -1.123079         0.515767
 O         4.656176         0.122992         0.177403
 C         4.121805         1.445182         0.549279
 C         2.659192         0.784098         0.823786
 H        -0.359043         1.122737         0.657075
 H         0.066551         1.649330        -0.928927
 H        -0.569709        -0.058095        -0.502327
 H         1.914319        -0.922790        -1.739576
 H         2.678766         0.890834        -1.719774
 H         2.830532        -2.345782        -0.264660
 H         3.035864        -2.038955         1.382433
 H         4.678418         1.732621         1.436166
 H         4.319290         2.207440        -0.312346
 H         2.472223         0.720254         1.860137
