19
Iteration:   104
 C         0.130117         1.050742        -0.062940
 C         1.449741         0.236172        -0.123782
 C         2.527311        -0.124315        -1.215218
 C         3.396829        -0.420277         0.044508
 C         2.789295        -1.692108         0.556629
 O         1.333416        -1.191889         0.489968
 O         4.640700         0.190728         0.187295
 C         3.973085         1.494650         0.454105
 C         2.599525         0.731257         0.757052
 H         0.082120         1.299544         1.036301
 H         0.283912         1.992017        -0.552429
 H        -0.822925         0.653861        -0.397061
 H         2.436491        -0.807155        -2.172074
 H         2.731434         0.927804        -1.682258
 H         2.790552        -2.496337        -0.303907
 H         2.986890        -2.146105         1.590038
 H         4.383227         1.924964         1.368350
 H         4.089028         2.129314        -0.382265
 H         2.350581         0.730573         1.830435
