19
Iteration:  1991
 C         0.225716         0.984004        -0.163632
 C         1.499399         0.217659        -0.057287
 C         2.549320        -0.059517        -1.246046
 C         3.306807        -0.420053         0.035237
 C         2.627331        -1.664108         0.578612
 O         1.344312        -1.109370         0.560639
 O         4.710221         0.167749         0.099649
 C         3.974607         1.464909         0.483833
 C         2.605471         0.703944         0.833154
 H        -0.085639         1.429927         0.834814
 H         0.361386         1.922929        -0.825685
 H        -0.671155         0.528352        -0.590569
 H         2.240419        -0.882851        -1.956531
 H         2.964791         0.814122        -1.659236
 H         2.764118        -2.513901        -0.148591
 H         2.864375        -2.053189         1.564643
 H         4.272536         1.947778         1.312466
 H         4.031495         2.003285        -0.400236
 H         2.213034         0.654160         1.835799
