19
Iteration:  3101
 C         0.153898         0.836124        -0.236002
 C         1.493282         0.298537        -0.051793
 C         2.448645         0.013047        -1.214203
 C         3.342050        -0.456934        -0.087805
 C         2.582920        -1.590653         0.660561
 O         1.294080        -0.991399         0.631607
 O         4.758205         0.077105         0.031941
 C         4.075106         1.364650         0.510116
 C         2.713469         0.772630         0.834888
 H        -0.427693         0.623499         0.703502
 H        -0.035770         1.876230        -0.479400
 H        -0.433210         0.181640        -1.009223
 H         2.065284        -0.719631        -1.900294
 H         2.701725         1.050299        -1.558479
 H         2.526327        -2.497608         0.046545
 H         2.938177        -1.707612         1.710580
 H         4.589291         1.796230         1.294373
 H         4.254892         2.165932        -0.232489
 H         2.565109         0.522030         1.913256
