19
Iteration:  4836charge 0 multiplicity 1
 C         0.171341         1.077317        -0.079467
 C         1.479484         0.308056        -0.083565
 C         2.516696        -0.092476        -1.243292
 C         3.390072        -0.424398         0.085408
 C         2.743338        -1.677568         0.572098
 O         1.317875        -1.145557         0.543025
 O         4.655992         0.107691         0.041112
 C         3.977027         1.365544         0.454719
 C         2.608539         0.811362         0.808059
 H        -0.191266         1.393694         0.923705
 H         0.137909         2.055121        -0.534131
 H        -0.614385         0.508774        -0.422304
 H         2.050406        -0.935591        -1.755337
 H         2.925594         0.817447        -1.540488
 H         2.672818        -2.392706        -0.324494
 H         2.930243        -2.164366         1.555337
 H         4.681518         1.647303         1.265307
 H         4.094085         1.863566        -0.496900
 H         2.382932         0.904985         1.908059
