19
Iteration:  3400charge 0 multiplicity 1
 C         0.024932         0.843083        -0.231911
 C         1.451287         0.281222        -0.057350
 C         2.464961         0.025368        -1.173639
 C         3.370146        -0.406488        -0.061385
 C         2.639573        -1.606361         0.578343
 O         1.291157        -1.025957         0.650845
 O         4.697537         0.062614         0.154383
 C         4.165039         1.401740         0.449245
 C         2.746169         0.786838         0.740385
 H        -0.440861         0.653920         0.774924
 H        -0.052891         1.952018        -0.460331
 H        -0.615634         0.060915        -0.676678
 H         2.313468        -0.579293        -2.063162
 H         2.763627         0.988568        -1.565278
 H         2.602452        -2.421552        -0.209139
 H         2.919480        -1.955694         1.662083
 H         4.510485         1.918334         1.397949
 H         4.286889         2.022356        -0.362993
 H         2.838128         0.381367         1.792513
