19
Iteration:  2156
 C         0.168154         1.061268        -0.234614
 C         1.535036         0.263875        -0.041085
 C         2.365618        -0.160356        -1.210303
 C         3.401261        -0.394949         0.116942
 C         2.664728        -1.728230         0.512093
 O         1.297564        -1.132494         0.472747
 O         4.708844         0.212415         0.146741
 C         4.029133         1.549398         0.435024
 C         2.691217         0.657513         0.930446
 H        -0.097182         1.401420         0.821439
 H         0.340062         1.955417        -0.790174
 H        -0.722272         0.478081        -0.622157
 H         2.061931        -1.152899        -1.639759
 H         2.892538         0.470176        -1.997579
 H         2.698387        -2.696083         0.028318
 H         3.065190        -1.865391         1.517428
 H         4.497544         1.986757         1.203965
 H         3.681702         2.251006        -0.392906
 H         2.508986         0.421852         1.954088
