19
Iteration:   958charge 0 multiplicity 1
 C         0.146345         0.954273        -0.205896
 C         1.494551         0.247060        -0.080371
 C         2.442019        -0.100582        -1.208188
 C         3.447375        -0.484729        -0.001767
 C         2.719867        -1.668007         0.526629
 O         1.268459        -1.045546         0.550529
 O         4.740825         0.261520         0.142717
 C         3.912456         1.454168         0.548751
 C         2.682275         0.626096         0.830128
 H        -0.337126         1.133882         0.695569
 H         0.364240         1.959177        -0.661238
 H        -0.579828         0.320438        -0.730597
 H         2.231381        -0.790217        -2.006961
 H         2.879858         0.818214        -1.679584
 H         2.671967        -2.545232        -0.051595
 H         2.991804        -1.816007         1.553537
 H         4.409713         2.008146         1.448349
 H         3.856819         2.148390        -0.439728
 H         2.514662         0.478317         1.966380
