19
Iteration:  4368charge 0 multiplicity 1
 C         0.227154         1.077422        -0.089956
 C         1.479029         0.197164        -0.040013
 C         2.436761        -0.138870        -1.259028
 C         3.335967        -0.371215         0.054957
 C         2.678970        -1.722644         0.591138
 O         1.279473        -1.134369         0.539036
 O         4.676221         0.116270         0.114002
 C         3.973494         1.523958         0.362554
 C         2.697311         0.772446         0.817093
 H        -0.174218         1.224132         0.931918
 H         0.489759         2.091874        -0.389667
 H        -0.572523         0.745682        -0.739385
 H         2.550257        -1.003417        -1.941324
 H         2.978964         0.827473        -1.577591
 H         2.867371        -2.670078         0.017997
 H         2.826500        -2.143976         1.651334
 H         4.717159         1.860414         1.133154
 H         3.820009         2.173837        -0.612741
 H         2.543944         0.630928         1.931468
