19
Iteration:  1150charge 0 multiplicity 1
 C         0.214776         0.955412        -0.138934
 C         1.515483         0.257229        -0.101828
 C         2.518604        -0.082985        -1.238677
 C         3.271764        -0.419866         0.065574
 C         2.753854        -1.742508         0.522909
 O         1.283721        -1.129507         0.521214
 O         4.687938         0.170094         0.205935
 C         3.992683         1.480915         0.468713
 C         2.614439         0.803749         0.772310
 H         0.099486         1.289178         0.874122
 H         0.183798         1.837284        -0.749397
 H        -0.535974         0.343229        -0.571015
 H         2.229775        -0.951577        -1.784998
 H         2.523890         0.940856        -1.677151
 H         2.950809        -2.600841        -0.141740
 H         2.844984        -2.135188         1.574290
 H         4.434713         2.113759         1.278241
 H         4.073319         2.219197        -0.402425
 H         2.358420         0.777961         1.861709
