19
Iteration:   250
 C         0.206985         0.991594        -0.102337
 C         1.482932         0.222506        -0.041784
 C         2.497343        -0.090022        -1.134861
 C         3.311492        -0.374042         0.155543
 C         2.734136        -1.751971         0.496536
 O         1.318898        -1.187513         0.404790
 O         4.654201         0.182235         0.114606
 C         3.961323         1.501916         0.409630
 C         2.647601         0.791676         0.876961
 H        -0.230780         1.174314         0.912271
 H         0.519670         2.019496        -0.418982
 H        -0.634436         0.589433        -0.711653
 H         2.499211        -0.754624        -2.021892
 H         2.812119         0.799447        -1.672259
 H         3.023579        -2.511587        -0.328761
 H         2.862267        -2.076811         1.594209
 H         4.475341         2.072509         1.074382
 H         3.900843         1.941315        -0.600607
 H         2.386713         0.835187         2.043203
