19
Iteration:    64charge 0 multiplicity 1
 C         0.130134         0.869378        -0.177506
 C         1.517553         0.256011        -0.030477
 C         2.359632        -0.017210        -1.231201
 C         3.426030        -0.460185         0.086814
 C         2.748802        -1.695089         0.589166
 O         1.289657        -1.020083         0.411153
 O         4.653180         0.177243         0.101965
 C         3.982048         1.473606         0.491953
 C         2.786299         0.691535         0.886276
 H        -0.545928         0.742052         0.788525
 H         0.100566         1.949102        -0.347230
 H        -0.259928         0.258175        -1.040845
 H         1.984356        -0.777802        -1.831328
 H         2.760415         0.864791        -1.673323
 H         2.744863        -2.611206         0.075402
 H         2.860959        -1.719229         1.671509
 H         4.553271         1.965709         1.253807
 H         3.978496         2.207255        -0.480463
 H         2.622673         0.700171         2.085695
