19
Iteration:  2623charge 0 multiplicity 1
 C         0.121950         1.007116        -0.141839
 C         1.533496         0.278201        -0.116455
 C         2.516815        -0.052897        -1.250103
 C         3.352676        -0.380828         0.124914
 C         2.671045        -1.679727         0.652353
 O         1.313788        -1.137571         0.549904
 O         4.627591         0.076500         0.098275
 C         4.050844         1.433690         0.374016
 C         2.645959         0.800000         0.791344
 H        -0.243997         0.771844         0.870106
 H         0.331824         2.016674        -0.101906
 H        -0.554369         0.625235        -0.943378
 H         2.297657        -0.971168        -1.810714
 H         2.804012         0.782023        -1.829665
 H         2.797735        -2.585320         0.106196
 H         3.070083        -1.672609         1.637786
 H         4.619855         1.836997         1.307219
 H         4.008073         2.032669        -0.569714
 H         2.379752         0.780744         1.846328
