19
Iteration:  3574charge 0 multiplicity 1
 C         0.009715         0.863300        -0.212383
 C         1.493144         0.382958         0.022713
 C         2.404840         0.009008        -1.211981
 C         3.387868        -0.416304         0.103145
 C         2.684955        -1.629507         0.584564
 O         1.325575        -1.043306         0.553655
 O         4.678720         0.035874         0.103986
 C         4.085853         1.375532         0.431077
 C         2.779873         0.788703         0.786011
 H        -0.665758         0.834303         0.643631
 H         0.052654         1.930584        -0.604084
 H        -0.343037         0.295745        -1.087019
 H         2.173415        -0.925645        -1.751542
 H         2.846794         0.806026        -1.841563
 H         2.850812        -2.436410        -0.102256
 H         2.856203        -1.958050         1.621282
 H         4.679556         1.823988         1.287303
 H         4.125529         2.099125        -0.526729
 H         2.490304         0.675723         1.901852
