19
Iteration:  3289charge 0 multiplicity 1
 C         0.051495         0.903328        -0.164924
 C         1.461303         0.392777        -0.100665
 C         2.404239        -0.121799        -1.181517
 C         3.345275        -0.407031         0.142014
 C         2.652353        -1.628635         0.548717
 O         1.326738        -1.076104         0.513013
 O         4.756611         0.088427         0.056371
 C         4.096186         1.435042         0.445925
 C         2.715072         0.780974         0.856978
 H        -0.300402         0.814011         0.897721
 H         0.061894         2.062283        -0.370350
 H        -0.565942         0.308819        -0.954928
 H         2.131050        -0.994118        -1.774365
 H         2.955581         0.621427        -1.682722
 H         2.715294        -2.542346        -0.138110
 H         2.957312        -1.884021         1.644554
 H         4.614511         1.914341         1.275764
 H         4.168125         2.091612        -0.414799
 H         2.507988         0.666594         1.942079
