19
Iteration:   286charge 0 multiplicity 1
 C         0.180209         0.899843        -0.168055
 C         1.509338         0.281964        -0.004695
 C         2.490120        -0.048760        -1.301162
 C         3.323334        -0.386752        -0.092129
 C         2.638355        -1.660498         0.528853
 O         1.324698        -1.103345         0.575775
 O         4.684662         0.200531         0.134054
 C         3.950005         1.469175         0.577157
 C         2.736461         0.648598         0.854386
 H        -0.248088         1.361973         0.697407
 H         0.351385         1.659997        -1.042877
 H        -0.474709         0.135024        -0.676241
 H         2.317635        -0.793549        -1.955771
 H         2.643270         0.928268        -1.638332
 H         2.728516        -2.602770        -0.035367
 H         3.020598        -1.831377         1.525387
 H         4.378376         2.083957         1.434187
 H         3.897909         2.197710        -0.260318
 H         2.590739         0.372698         1.960751
