19
Iteration:  1412charge 0 multiplicity 1
 C         0.141461         1.028343        -0.155938
 C         1.463407         0.240828        -0.149891
 C         2.527400        -0.025109        -1.226837
 C         3.338746        -0.463775         0.042149
 C         2.663196        -1.748485         0.628567
 O         1.352388        -1.125811         0.528516
 O         4.701173         0.138695         0.165812
 C         3.932725         1.530201         0.441527
 C         2.703794         0.711446         0.793413
 H        -0.347392         0.894333         0.854619
 H         0.574369         2.100337        -0.266825
 H        -0.605378         0.736824        -0.960673
 H         2.233079        -0.949954        -1.900096
 H         3.046078         0.865431        -1.581443
 H         2.792598        -2.576043        -0.030011
 H         2.839988        -1.883895         1.709568
 H         4.267991         2.122321         1.317252
 H         4.005614         2.028938        -0.468753
 H         2.377395         0.679080         1.835821
