19
Iteration:  4492charge 0 multiplicity 1
 C         0.176522         1.014165        -0.084226
 C         1.448615         0.273514        -0.109233
 C         2.468118         0.018304        -1.271001
 C         3.339700        -0.515372         0.119211
 C         2.614887        -1.682215         0.618925
 O         1.309046        -1.131917         0.542875
 O         4.686500         0.147478         0.086974
 C         4.033333         1.491783         0.375884
 C         2.756029         0.662344         0.835621
 H        -0.133007         1.291912         0.906435
 H         0.331866         1.742144        -0.883887
 H        -0.635022         0.482673        -0.481085
 H         2.276667        -0.760667        -2.080496
 H         2.924220         0.870438        -1.724707
 H         2.634134        -2.631880         0.002350
 H         2.927060        -1.800129         1.685581
 H         4.480816         1.972117         1.271258
 H         3.827687         2.293562        -0.446594
 H         2.678696         0.644904         1.947238
