19
Iteration:   133charge 0 multiplicity 1
 C         0.166602         0.889872        -0.160366
 C         1.581649         0.348174         0.025453
 C         2.419876        -0.045942        -1.322755
 C         3.433047        -0.392909        -0.047866
 C         2.681739        -1.661234         0.543794
 O         1.256316        -1.128060         0.510742
 O         4.719874         0.194277         0.204367
 C         3.908189         1.484806         0.481818
 C         2.719269         0.635782         0.900562
 H        -0.227925         1.290757         0.710139
 H         0.207601         1.828281        -0.827005
 H        -0.467253         0.096939        -0.570339
 H         2.074534        -0.918392        -1.844080
 H         2.534690         0.754361        -2.012837
 H         2.681291        -2.433335        -0.155889
 H         3.042776        -1.934516         1.494957
 H         4.429142         2.102255         1.338605
 H         3.870990         2.042556        -0.470683
 H         2.602644         0.519428         1.948928
