19
Iteration:  2612charge 0 multiplicity 1
 C         0.185235         1.047258        -0.098604
 C         1.480518         0.366814        -0.118654
 C         2.534035        -0.111206        -1.139362
 C         3.366952        -0.412354         0.095043
 C         2.723520        -1.678752         0.679081
 O         1.275676        -1.179247         0.480237
 O         4.723553         0.061903         0.102753
 C         3.945917         1.478720         0.291950
 C         2.592568         0.778712         0.824061
 H        -0.329459         0.743420         0.826660
 H         0.175242         2.061543        -0.173767
 H        -0.597571         0.825732        -0.859762
 H         2.348371        -0.915882        -1.854634
 H         3.008672         0.661144        -1.685639
 H         2.794348        -2.550166         0.074666
 H         2.748459        -2.065544         1.653489
 H         4.553664         2.066139         1.124726
 H         4.080099         2.081329        -0.637723
 H         2.573628         0.844315         1.895914
