19
Iteration:  3180
 C         0.198583         1.091615        -0.089982
 C         1.521901         0.304959        -0.039707
 C         2.549177        -0.083544        -1.180019
 C         3.377026        -0.545531        -0.007679
 C         2.644753        -1.631741         0.647859
 O         1.314297        -1.181938         0.513679
 O         4.664820         0.179101         0.066907
 C         3.905246         1.467505         0.431698
 C         2.666263         0.666923         0.777606
 H        -0.059737         1.383722         0.908044
 H         0.358081         2.021521        -0.742142
 H        -0.644632         0.713101        -0.699039
 H         2.222404        -0.750324        -1.910243
 H         2.964915         0.706946        -1.750939
 H         2.699120        -2.665560         0.324491
 H         3.048333        -1.655362         1.683051
 H         4.589567         1.850842         1.152459
 H         3.662852         2.061732        -0.466981
 H         2.426219         0.639188         1.828794
