19
Iteration:  3994charge 0 multiplicity 1
 C         0.111185         0.794852        -0.218740
 C         1.474961         0.364598        -0.076021
 C         2.414664         0.056164        -1.263635
 C         3.409450        -0.445852         0.067217
 C         2.603757        -1.653547         0.639373
 O         1.300119        -0.985912         0.628496
 O         4.731172         0.120634         0.036304
 C         4.094125         1.316752         0.503306
 C         2.734788         0.719967         0.800919
 H        -0.329222         1.110824         0.712522
 H         0.271252         1.647223        -0.941736
 H        -0.614702         0.261836        -0.913604
 H         1.876844        -0.754190        -1.792527
 H         2.718226         1.051726        -1.611118
 H         2.457710        -2.406971        -0.072404
 H         2.805628        -1.894027         1.691698
 H         4.671170         1.707759         1.398431
 H         4.232406         2.017354        -0.322568
 H         2.588182         0.777928         1.883013
