19
Iteration:   699charge 0 multiplicity 1
 C         0.259465         1.010113        -0.247212
 C         1.509889         0.246981         0.008012
 C         2.433323        -0.119134        -1.196658
 C         3.334913        -0.398856         0.108141
 C         2.695058        -1.671708         0.492649
 O         1.303825        -1.212190         0.509023
 O         4.696310         0.285644         0.108226
 C         3.960407         1.460867         0.488531
 C         2.659189         0.717228         0.869714
 H        -0.413151         0.730109         0.652301
 H         0.343077         2.148346        -0.357548
 H        -0.341012         0.407766        -0.960782
 H         2.360294        -0.948807        -1.878276
 H         2.885973         0.832759        -1.686570
 H         2.847510        -2.461676        -0.202353
 H         2.592306        -2.086157         1.481091
 H         4.372023         1.856765         1.381211
 H         3.915679         2.192868        -0.345781
 H         2.498351         0.717117         1.860030
