19
Iteration:  1821charge 0 multiplicity 1
 C         0.128337         0.869912        -0.220042
 C         1.465901         0.268440        -0.099473
 C         2.446425        -0.059875        -1.189355
 C         3.392892        -0.420515        -0.039361
 C         2.684505        -1.658855         0.539698
 O         1.298871        -1.004947         0.552100
 O         4.713176         0.145477         0.182899
 C         4.094035         1.426623         0.518661
 C         2.642370         0.745258         0.858713
 H        -0.228021         1.192653         0.770625
 H         0.101246         1.697406        -0.860851
 H        -0.600958         0.164812        -0.660012
 H         2.084177        -0.786405        -1.990318
 H         2.831516         0.765852        -1.676577
 H         2.866154        -2.380959        -0.218186
 H         2.775648        -1.982875         1.576873
 H         4.638828         1.928733         1.314776
 H         3.993515         2.111968        -0.302849
 H         2.383386         0.500944         1.959843
