19
Iteration:  4202
 C         0.199782         1.010475        -0.088944
 C         1.512866         0.303051        -0.107964
 C         2.472769        -0.062223        -1.238882
 C         3.348051        -0.414842         0.069090
 C         2.683955        -1.668045         0.636026
 O         1.325612        -1.118589         0.506867
 O         4.651962         0.093596         0.100881
 C         3.930315         1.414578         0.393921
 C         2.688658         0.740569         0.813878
 H        -0.062843         1.157017         0.915606
 H         0.371289         2.028359        -0.305544
 H        -0.591194         0.561448        -0.659667
 H         2.227988        -0.937312        -1.855161
 H         2.976427         0.747505        -1.712417
 H         2.645252        -2.624039         0.133950
 H         3.090749        -1.583382         1.636911
 H         4.393365         2.016383         1.193445
 H         4.048879         2.030642        -0.544039
 H         2.508104         0.624815         1.839811
