19
Iteration:   188
 C         0.081307         0.789357        -0.230432
 C         1.476946         0.360265        -0.006375
 C         2.394220        -0.028796        -1.186985
 C         3.354903        -0.345344        -0.016948
 C         2.713436        -1.596633         0.491388
 O         1.313573        -1.129074         0.564230
 O         4.684707         0.137078         0.073941
 C         4.105096         1.378167         0.581521
 C         2.685898         0.809778         0.820325
 H        -0.477627         0.540150         0.623005
 H         0.073453         1.929493        -0.286431
 H        -0.390918         0.331903        -1.139046
 H         2.219824        -0.879547        -1.799505
 H         2.853536         0.800134        -1.634537
 H         2.833533        -2.507479        -0.010578
 H         3.065792        -1.706754         1.477059
 H         4.575159         1.767015         1.579694
 H         4.258044         2.121259        -0.216181
 H         2.561571         0.586347         1.860014
