19
Iteration:   462charge 0 multiplicity 1
 C         0.123876         0.787794        -0.241452
 C         1.499615         0.286376        -0.041932
 C         2.475873         0.015081        -1.140177
 C         3.379943        -0.372081         0.046411
 C         2.712797        -1.609289         0.475553
 O         1.305013        -1.085662         0.528300
 O         4.635992         0.132398         0.143814
 C         4.106004         1.444444         0.533759
 C         2.645980         0.748588         0.810029
 H        -0.335282         1.137361         0.761045
 H         0.037497         1.579635        -0.975587
 H        -0.448342        -0.097032        -0.516692
 H         2.075845        -0.700554        -1.786899
 H         2.640990         0.906646        -1.792901
 H         2.835700        -2.421475        -0.340406
 H         2.940525        -1.964504         1.508161
 H         4.595094         1.709824         1.503497
 H         4.311082         2.113842        -0.236905
 H         2.252129         0.889011         1.914146
