19
Iteration:  1482
 C         0.119313         0.813070        -0.258343
 C         1.494502         0.304079        -0.083242
 C         2.530084         0.047044        -1.118453
 C         3.345197        -0.393146         0.074308
 C         2.610042        -1.636659         0.566713
 O         1.301129        -1.101020         0.535191
 O         4.688785         0.105828         0.094912
 C         4.041352         1.450463         0.487796
 C         2.688648         0.747566         0.804758
 H        -0.360420         1.144923         0.704019
 H         0.332983         1.768974        -0.867878
 H        -0.654634         0.167734        -0.734154
 H         2.289181        -0.646282        -1.861825
 H         2.843009         1.077830        -1.522381
 H         2.601386        -2.669446         0.081840
 H         3.048217        -1.822620         1.571676
 H         4.588509         1.786460         1.418818
 H         4.055740         2.124199        -0.431559
 H         2.754661         0.511129         1.972264
