19
Iteration:  4336charge 0 multiplicity 1
 C         0.145338         0.953375        -0.123184
 C         1.514078         0.352247        -0.013110
 C         2.400524        -0.078229        -1.212753
 C         3.385186        -0.408597        -0.002269
 C         2.680209        -1.681147         0.605033
 O         1.307485        -1.068249         0.565983
 O         4.742333         0.072968         0.130766
 C         3.978617         1.414172         0.380942
 C         2.698287         0.743017         0.758383
 H        -0.204930         1.273842         0.864919
 H         0.197995         1.886362        -0.673790
 H        -0.462775         0.205785        -0.553451
 H         2.230276        -0.822123        -2.029442
 H         2.902580         0.798878        -1.816403
 H         2.621459        -2.460692        -0.132312
 H         2.740085        -1.791681         1.691094
 H         4.336019         1.878844         1.329015
 H         3.959427         2.285995        -0.337493
 H         2.548150         0.636895         1.889960
