19
Iteration:  4605charge 0 multiplicity 1
 C         0.021895         0.902897        -0.143882
 C         1.507697         0.371292        -0.000919
 C         2.401544        -0.008688        -1.201938
 C         3.402056        -0.397416         0.014397
 C         2.632865        -1.691781         0.581240
 O         1.322743        -1.093212         0.525227
 O         4.744137         0.063909         0.099699
 C         4.221451         1.424035         0.423214
 C         2.632945         0.819125         0.833765
 H        -0.613551         0.736870         0.729930
 H         0.000234         1.919617        -0.549630
 H        -0.512561         0.250077        -0.962542
 H         2.116392        -0.927587        -1.672672
 H         2.683693         0.853774        -1.866983
 H         2.691865        -2.609219        -0.122528
 H         2.788884        -2.072841         1.607393
 H         4.496597         1.717391         1.444647
 H         4.206888         2.139315        -0.477140
 H         2.521980         0.939697         1.897126
