19
Iteration:  4055
 C         0.195355         1.052368        -0.099404
 C         1.527354         0.312626        -0.075022
 C         2.460007        -0.132931        -1.232521
 C         3.417022        -0.533000         0.051204
 C         2.616990        -1.732210         0.628309
 O         1.242311        -1.072610         0.541853
 O         4.698852         0.174663         0.168946
 C         3.981472         1.504103         0.369295
 C         2.751357         0.687287         0.742498
 H        -0.278814         1.077050         0.907827
 H         0.397849         2.106251        -0.297551
 H        -0.459415         0.550756        -0.774377
 H         2.156573        -0.795924        -2.028585
 H         2.662764         0.787707        -1.811762
 H         2.463121        -2.638408        -0.007112
 H         2.894474        -1.974200         1.701625
 H         4.409628         2.139557         1.167395
 H         3.973671         2.044348        -0.597663
 H         2.617700         0.677658         1.852751
