19
Iteration:  2686charge 0 multiplicity 1
 C         0.159417         0.836580        -0.298971
 C         1.499197         0.295432         0.014096
 C         2.484501         0.000702        -1.112642
 C         3.320543        -0.438431         0.150545
 C         2.681551        -1.666262         0.535370
 O         1.317716        -0.995452         0.616310
 O         4.605797         0.050059        -0.015457
 C         4.108476         1.457144         0.441888
 C         2.714540         0.804880         0.831194
 H        -0.370058         1.254159         0.580043
 H         0.053645         1.499399        -1.118614
 H        -0.515772         0.061123        -0.602002
 H         2.091577        -0.657736        -1.868052
 H         2.615832         0.974461        -1.618981
 H         2.670321        -2.527388        -0.180676
 H         2.979349        -2.059506         1.588282
 H         4.690268         1.666837         1.389056
 H         4.185498         2.210391        -0.334077
 H         2.494609         0.735581         1.912197
