19
Iteration:  2796
 C         0.140085         0.862444        -0.319574
 C         1.544973         0.394262         0.025996
 C         2.316320         0.026179        -1.149634
 C         3.350204        -0.434627         0.089389
 C         2.628728        -1.605800         0.601947
 O         1.311245        -1.056466         0.567705
 O         4.686321         0.091556         0.038990
 C         4.094548         1.411299         0.395435
 C         2.753404         0.705891         0.899107
 H        -0.383949         0.631570         0.640012
 H         0.111331         1.865030        -0.611903
 H        -0.213992         0.175122        -1.155159
 H         2.203332        -0.975573        -1.683449
 H         2.642564         0.831254        -1.735172
 H         2.618164        -2.610402         0.124425
 H         2.982791        -1.947889         1.648726
 H         4.747672         2.013867         1.060738
 H         3.918952         2.024860        -0.403451
 H         2.760747         0.629901         1.993869
