19
Iteration:   774charge 0 multiplicity 1
 C         0.039627         0.872345        -0.154735
 C         1.432046         0.261571        -0.122036
 C         2.519197        -0.075544        -1.191293
 C         3.358105        -0.364927         0.087021
 C         2.749405        -1.626291         0.488883
 O         1.329358        -1.092299         0.508026
 O         4.720064         0.160504         0.164116
 C         4.115456         1.413851         0.559043
 C         2.603694         0.791011         0.781288
 H        -0.630643         0.890408         0.724064
 H         0.086756         1.871418        -0.748915
 H        -0.476929         0.144779        -0.883326
 H         2.158500        -0.863270        -1.831756
 H         2.712944         0.990477        -1.585964
 H         2.608356        -2.384839        -0.303995
 H         2.992877        -2.025687         1.542494
 H         4.453748         1.801925         1.439665
 H         4.210844         2.103134        -0.219335
 H         2.575926         0.627979         1.832849
