19
Iteration:  1460charge 0 multiplicity 1
 C         0.115797         0.983339        -0.274759
 C         1.547609         0.333727         0.000937
 C         2.432405        -0.048178        -1.268522
 C         3.401560        -0.469950         0.088217
 C         2.710076        -1.701193         0.599155
 O         1.313810        -1.073620         0.513021
 O         4.696195         0.174500         0.123547
 C         3.961356         1.446334         0.495086
 C         2.681996         0.715945         0.877042
 H        -0.509092         0.931237         0.656245
 H         0.252970         2.019117        -0.739674
 H        -0.433808         0.218776        -0.876521
 H         2.129851        -0.817582        -1.916238
 H         2.875014         0.852899        -1.838251
 H         2.744506        -2.671201        -0.020031
 H         2.958633        -2.040204         1.624960
 H         4.711737         1.777180         1.251306
 H         3.779167         2.069597        -0.465823
 H         2.412612         0.440741         2.032441
