19
Iteration:  4570charge 0 multiplicity 1
 C         0.087131         0.899036        -0.194357
 C         1.470881         0.286466        -0.018527
 C         2.487479         0.053748        -1.262727
 C         3.386584        -0.403308         0.062022
 C         2.589577        -1.645064         0.613524
 O         1.340269        -1.035950         0.615706
 O         4.738318         0.054589         0.018312
 C         4.076575         1.412859         0.433634
 C         2.646135         0.702729         0.871781
 H        -0.471962         0.712362         0.741345
 H         0.074324         2.016012        -0.265381
 H        -0.310321         0.341129        -1.090195
 H         2.385870        -0.733500        -2.009849
 H         2.594985         1.062598        -1.818752
 H         2.706140        -2.585580        -0.072181
 H         2.764326        -1.956726         1.700706
 H         4.626239         1.990479         1.229214
 H         4.150310         2.169523        -0.481426
 H         2.581379         0.516283         1.956112
