19
Iteration:  2837
 C         0.078606         0.908516        -0.248748
 C         1.441357         0.291886        -0.167514
 C         2.485309        -0.035473        -1.164177
 C         3.335513        -0.363695         0.070377
 C         2.642366        -1.672916         0.579027
 O         1.323207        -1.065572         0.704707
 O         4.776304         0.078511         0.061596
 C         4.117891         1.413173         0.423384
 C         2.642893         0.765056         0.784590
 H        -0.230239         1.111167         0.840068
 H         0.115082         1.966600        -0.524962
 H        -0.745549         0.297736        -0.540643
 H         2.054618        -0.744023        -1.866547
 H         2.718187         0.926085        -1.604767
 H         2.667230        -2.491645        -0.141456
 H         3.056804        -2.092603         1.512704
 H         4.494734         1.676562         1.338699
 H         4.279216         2.272594        -0.344408
 H         2.364160         0.699630         1.842862
