19
Iteration:  3071charge 0 multiplicity 1
 C         0.120100         1.052046        -0.252466
 C         1.457782         0.285221        -0.050361
 C         2.390324        -0.098846        -1.142702
 C         3.315954        -0.479487         0.023977
 C         2.736060        -1.643908         0.687207
 O         1.323027        -1.128716         0.496993
 O         4.690493         0.127309         0.013400
 C         4.131167         1.419189         0.479094
 C         2.654886         0.791856         0.888808
 H        -0.361128         1.116983         0.698876
 H         0.318304         2.081481        -0.568153
 H        -0.485899         0.379539        -0.825804
 H         1.940548        -0.798355        -1.793414
 H         2.738079         0.757050        -1.744595
 H         2.870051        -2.470623         0.016393
 H         3.001165        -1.988167         1.664719
 H         4.762864         1.776030         1.388063
 H         4.087638         2.090784        -0.460251
 H         2.524768         0.672452         1.948358
