19
Iteration:  1368
 C         0.078687         0.869705        -0.258905
 C         1.444645         0.298042        -0.064178
 C         2.445369        -0.023160        -1.159497
 C         3.417600        -0.385556         0.113643
 C         2.620270        -1.645370         0.552098
 O         1.334830        -1.115643         0.501857
 O         4.693359         0.085885         0.136547
 C         4.120390         1.511641         0.472023
 C         2.696304         0.777870         0.832710
 H        -0.360920         0.963214         0.784516
 H         0.202130         1.846160        -0.847658
 H        -0.503466         0.028723        -0.768359
 H         2.036197        -0.760197        -1.995791
 H         2.851371         0.918647        -1.690744
 H         2.531268        -2.505288        -0.105973
 H         2.858874        -1.920758         1.610160
 H         4.640940         1.700091         1.423827
 H         4.075099         2.220606        -0.320030
 H         2.629581         0.657234         1.938019
