19
Iteration:  4234charge 0 multiplicity 1
 C         0.184695         1.062939        -0.076656
 C         1.495141         0.240122        -0.068757
 C         2.459188        -0.125435        -1.176095
 C         3.336070        -0.438026         0.127114
 C         2.615034        -1.740904         0.588756
 O         1.295471        -1.123566         0.485840
 O         4.718076         0.203487         0.114050
 C         3.966275         1.484854         0.329030
 C         2.731789         0.732713         0.814730
 H        -0.219055         0.886446         0.856758
 H         0.574766         2.005672        -0.327653
 H        -0.584088         0.902563        -0.831181
 H         2.193907        -0.945125        -1.831178
 H         2.832057         0.716590        -1.723272
 H         2.721145        -2.620920         0.052915
 H         2.996073        -1.999134         1.521546
 H         4.433260         2.030260         1.165710
 H         4.112763         1.933139        -0.688205
 H         2.550577         0.725205         1.845354
