19
Iteration:  2035
 C         0.131821         1.024622        -0.181506
 C         1.451649         0.276463        -0.025842
 C         2.492712        -0.017663        -1.229914
 C         3.407695        -0.400780         0.104246
 C         2.668038        -1.700770         0.568975
 O         1.328927        -1.155285         0.502039
 O         4.735162         0.152043         0.140801
 C         3.924590         1.410336         0.432038
 C         2.685889         0.751760         0.847590
 H        -0.383242         1.344752         0.766266
 H         0.397594         1.975287        -0.780358
 H        -0.491208         0.487552        -0.904210
 H         2.376196        -0.960316        -1.852761
 H         2.803807         0.819365        -1.767407
 H         2.647790        -2.663258        -0.031241
 H         2.941840        -1.932380         1.600495
 H         4.476657         1.854902         1.123261
 H         3.739292         1.973887        -0.426339
 H         2.607828         0.533249         1.899849
