19
Iteration:  4413charge 0 multiplicity 1
 C         0.139495         0.918220        -0.195833
 C         1.472085         0.257419        -0.015380
 C         2.521100        -0.022659        -1.221723
 C         3.346865        -0.421395         0.024358
 C         2.666649        -1.599176         0.630538
 O         1.276574        -1.049361         0.607717
 O         4.656810         0.067191         0.012172
 C         4.041110         1.451250         0.448968
 C         2.755265         0.728373         0.839261
 H        -0.517820         0.933934         0.686704
 H         0.305106         1.992771        -0.356606
 H        -0.275401         0.470920        -1.048811
 H         1.864416        -0.691240        -1.857783
 H         2.944078         0.866978        -1.759555
 H         2.574692        -2.502122        -0.036591
 H         2.953537        -2.065356         1.618683
 H         4.421235         1.965466         1.375728
 H         3.953218         2.128486        -0.508604
 H         2.821224         0.379279         1.943026
