19
Iteration:   460
 C         0.122944         0.794198        -0.232513
 C         1.488246         0.276582        -0.049855
 C         2.469262         0.040033        -1.122937
 C         3.402130        -0.394265         0.039558
 C         2.734488        -1.625417         0.482699
 O         1.289544        -1.073212         0.531505
 O         4.638551         0.135079         0.132179
 C         4.099887         1.439104         0.537073
 C         2.641684         0.751013         0.817634
 H        -0.267478         1.116715         0.693316
 H         0.021967         1.570307        -1.012081
 H        -0.411650        -0.084345        -0.553053
 H         2.146905        -0.718311        -1.878352
 H         2.673641         0.893442        -1.782061
 H         2.805463        -2.432421        -0.310558
 H         2.920936        -1.940012         1.532599
 H         4.506307         1.709053         1.451678
 H         4.288159         2.137080        -0.237080
 H         2.252502         0.895415         1.915735
