19
Iteration:  2703charge 0 multiplicity 1
 C         0.153335         0.923257        -0.210262
 C         1.482624         0.293661         0.005742
 C         2.456031         0.017356        -1.162366
 C         3.377102        -0.379427         0.049916
 C         2.607855        -1.656607         0.606769
 O         1.282157        -1.141710         0.569142
 O         4.733805         0.102429         0.055686
 C         4.016204         1.369231         0.354311
 C         2.672413         0.807107         0.880857
 H        -0.094337         1.455867         0.713987
 H         0.380566         1.687018        -1.062563
 H        -0.597995         0.149156        -0.501748
 H         2.362917        -0.799868        -1.904336
 H         3.044760         0.850996        -1.622533
 H         2.710613        -2.565334         0.009827
 H         2.931482        -2.041633         1.544618
 H         4.541590         1.928975         1.116320
 H         4.088996         2.105253        -0.485974
 H         2.474149         0.869905         1.994104
