19
Iteration:  1440charge 0 multiplicity 1
 C         0.229974         1.027442        -0.226916
 C         1.465624         0.205441        -0.062506
 C         2.446123        -0.112520        -1.138663
 C         3.316020        -0.410380         0.009221
 C         2.672426        -1.604684         0.538793
 O         1.325992        -1.127648         0.526822
 O         4.670635         0.189252         0.158447
 C         3.996974         1.485865         0.478098
 C         2.690403         0.680898         0.842056
 H        -0.249728         0.801154         0.710520
 H         0.593905         1.997421        -0.398229
 H        -0.426176         0.615137        -0.970695
 H         2.207010        -0.965922        -1.723630
 H         2.896673         0.576814        -1.955194
 H         2.911517        -2.498331        -0.158119
 H         2.828704        -2.029562         1.552376
 H         4.288782         1.974863         1.408717
 H         4.132762         2.120209        -0.503173
 H         2.346789         0.668764         1.891207
