19
Iteration:  3633
 C         0.225870         1.079198        -0.147543
 C         1.576347         0.382277        -0.080722
 C         2.468649        -0.143716        -1.148291
 C         3.435624        -0.470466         0.021663
 C         2.642760        -1.715288         0.642815
 O         1.277134        -1.128342         0.478849
 O         4.679860         0.228686         0.042807
 C         3.909940         1.438758         0.474928
 C         2.660217         0.635904         0.859229
 H        -0.065207         1.259047         0.914313
 H         0.461211         2.057680        -0.514986
 H        -0.613410         0.635357        -0.677458
 H         2.037313        -1.025327        -1.574436
 H         2.880944         0.455757        -1.920028
 H         2.708156        -2.713713         0.074855
 H         2.890143        -1.851713         1.722565
 H         4.650123         2.057671         1.024424
 H         3.636402         1.924789        -0.627857
 H         2.359848         0.625322         1.860807
