19
Iteration:  2045
 C         0.161296         0.956890        -0.234436
 C         1.535101         0.242199        -0.022070
 C         2.552467         0.012052        -1.186641
 C         3.365289        -0.430703         0.082426
 C         2.704962        -1.659277         0.583061
 O         1.286396        -1.103911         0.527700
 O         4.637702         0.113232         0.128279
 C         3.999339         1.456764         0.405148
 C         2.647823         0.703101         0.826956
 H        -0.328144         0.989848         0.778597
 H         0.295245         2.063063        -0.504696
 H        -0.633109         0.477246        -0.773464
 H         2.187527        -0.665258        -2.030463
 H         2.733302         0.945105        -1.610657
 H         2.697143        -2.611226        -0.022362
 H         3.035988        -1.891650         1.574761
 H         4.439363         1.871323         1.229940
 H         4.029311         2.149115        -0.435430
 H         2.452561         0.656073         1.941357
