19
Iteration:  1953charge 0 multiplicity 1
 C         0.088831         0.833506        -0.238636
 C         1.492866         0.332006         0.038800
 C         2.408371        -0.034607        -1.243734
 C         3.368998        -0.402717         0.082034
 C         2.613350        -1.613004         0.584096
 O         1.332009        -1.076306         0.465823
 O         4.705262         0.096873         0.131249
 C         4.132758         1.443709         0.499252
 C         2.682896         0.773266         0.817023
 H        -0.509404         0.772448         0.650098
 H         0.340230         1.800238        -0.511888
 H        -0.393701         0.167301        -0.966323
 H         1.876565        -0.673861        -1.926529
 H         2.845950         0.788215        -1.893259
 H         2.549786        -2.551203         0.051595
 H         3.011681        -1.796110         1.621046
 H         4.722347         1.906653         1.403993
 H         4.164522         2.228039        -0.327318
 H         2.628318         0.554103         1.975608
