19
Iteration:  1379charge 0 multiplicity 1
 C         0.149639         0.818936        -0.221092
 C         1.527038         0.284645         0.001404
 C         2.436646        -0.002469        -1.217869
 C         3.302883        -0.403635         0.047401
 C         2.630770        -1.651830         0.580542
 O         1.279662        -1.066856         0.439163
 O         4.742682         0.083043         0.129531
 C         4.036491         1.495890         0.522585
 C         2.717190         0.783992         0.868635
 H        -0.365942         1.013007         0.778542
 H         0.134525         1.900156        -0.620803
 H        -0.597602         0.282391        -0.888622
 H         2.207944        -1.030181        -1.763219
 H         2.984173         0.689709        -1.922610
 H         2.872552        -2.545535         0.029554
 H         2.854119        -1.889666         1.650536
 H         4.629207         2.160203         1.174984
 H         4.065715         2.041113        -0.381393
 H         2.538537         0.723146         1.960835
