19
Iteration:  1229
 C         0.063390         0.884774        -0.282439
 C         1.455297         0.273971        -0.029913
 C         2.470346        -0.069030        -1.203593
 C         3.375028        -0.401970         0.050640
 C         2.813073        -1.695499         0.533512
 O         1.250916        -1.040155         0.557166
 O         4.714334         0.139595         0.105944
 C         4.109770         1.471544         0.511627
 C         2.655668         0.730368         0.871794
 H        -0.469540         0.809770         0.589182
 H         0.161625         1.962379        -0.368214
 H        -0.615178         0.513679        -0.988733
 H         2.253383        -0.847987        -1.928452
 H         2.782130         0.766716        -1.694521
 H         2.563330        -2.515733        -0.168674
 H         2.792771        -1.914542         1.560875
 H         4.576374         1.836532         1.496287
 H         4.141266         2.051843        -0.390039
 H         2.352270         0.925620         1.960253
