19
Iteration:   574
 C         0.214658         0.908919        -0.232731
 C         1.468398         0.204289        -0.134107
 C         2.425657         0.001861        -1.192106
 C         3.330092        -0.395153        -0.024367
 C         2.741512        -1.677440         0.529144
 O         1.298601        -1.097590         0.608819
 O         4.679958         0.240848         0.190539
 C         4.010109         1.477586         0.492093
 C         2.627730         0.628368         0.852913
 H        -0.369403         0.806626         0.734047
 H         0.376177         1.986255        -0.426449
 H        -0.370071         0.568434        -1.141129
 H         2.313612        -0.700250        -2.033270
 H         2.878576         0.851549        -1.616438
 H         2.729439        -2.571235        -0.171724
 H         3.040040        -1.929993         1.564986
 H         4.603273         1.961298         1.324548
 H         4.125530         2.073866        -0.357991
 H         2.482550         0.391088         1.944631
