19
Iteration:   939charge 0 multiplicity 1
 C         0.137953         0.899743        -0.296385
 C         1.461875         0.304838        -0.015936
 C         2.530918         0.023894        -1.250469
 C         3.342124        -0.381004         0.015871
 C         2.673267        -1.692205         0.585266
 O         1.383279        -1.126629         0.596122
 O         4.637939         0.142146         0.099370
 C         3.974921         1.479389         0.519608
 C         2.692939         0.699633         0.877201
 H        -0.417028         0.829066         0.644272
 H         0.264051         1.948108        -0.527354
 H        -0.386387         0.418424        -1.103417
 H         2.209834        -0.812094        -1.909988
 H         2.767897         0.923040        -1.798918
 H         2.756017        -2.569530        -0.148437
 H         2.989194        -2.079857         1.641218
 H         4.483566         1.871700         1.351247
 H         3.938635         2.298169        -0.266852
 H         2.576366         0.423594         1.868430
