19
Iteration:  2138charge 0 multiplicity 1
 C         0.168129         1.035342        -0.218046
 C         1.441011         0.255036        -0.043453
 C         2.554162        -0.058288        -1.155664
 C         3.336546        -0.443468         0.081095
 C         2.703552        -1.679004         0.591101
 O         1.317212        -1.119398         0.535992
 O         4.686933         0.189131         0.074982
 C         3.935536         1.394723         0.449197
 C         2.699983         0.693230         0.849935
 H        -0.397597         1.277704         0.692326
 H         0.503691         1.953474        -0.723770
 H        -0.566945         0.385003        -0.824503
 H         2.236708        -0.733802        -1.903543
 H         2.755148         0.940547        -1.683800
 H         2.829720        -2.471766        -0.181955
 H         2.845739        -2.095154         1.659673
 H         4.516547         2.133882         1.132243
 H         3.843490         1.996598        -0.428088
 H         2.589697         0.632651         1.935109
