19
Iteration:    39charge 0 multiplicity 1
 C         0.054474         0.857135        -0.294489
 C         1.464382         0.353959        -0.038557
 C         2.429298        -0.013267        -1.147839
 C         3.392317        -0.382550        -0.042323
 C         2.635798        -1.616891         0.504768
 O         1.353441        -1.156737         0.645453
 O         4.726258         0.183690         0.106593
 C         4.075523         1.386543         0.517880
 C         2.703833         0.749418         0.857105
 H        -0.580084         0.618741         0.630134
 H        -0.050511         1.948509        -0.302477
 H        -0.261563         0.334409        -1.208966
 H         2.150756        -0.935487        -1.808379
 H         2.742555         0.949991        -1.661700
 H         2.594782        -2.463135        -0.294108
 H         3.077253        -1.901549         1.505876
 H         4.583317         1.908326         1.337560
 H         4.119971         2.080466        -0.389051
 H         2.572955         0.528100         1.980362
