19
Iteration:  4192
 C         0.148265         1.004206        -0.115339
 C         1.476424         0.240660        -0.047635
 C         2.394646        -0.101212        -1.211388
 C         3.376167        -0.449577         0.048559
 C         2.674003        -1.584596         0.584587
 O         1.372970        -1.035643         0.493717
 O         4.653162         0.140928         0.115063
 C         4.075285         1.373658         0.441785
 C         2.680223         0.719603         0.796651
 H        -0.297255         1.085625         0.864435
 H         0.237449         1.946041        -0.633639
 H        -0.584732         0.447184        -0.680250
 H         2.273542        -0.917077        -1.951550
 H         2.810336         0.696350        -1.810533
 H         2.678778        -2.642500         0.203131
 H         2.786309        -1.819499         1.729017
 H         4.561432         1.882370         1.266291
 H         3.814974         2.038889        -0.431983
 H         2.692049         0.675833         1.832141
