19
Iteration:  2674charge 0 multiplicity 1
 C         0.018709         0.823701        -0.332607
 C         1.490957         0.373260        -0.028229
 C         2.392606        -0.064323        -1.186366
 C         3.338315        -0.372718         0.013054
 C         2.622474        -1.651685         0.579337
 O         1.353584        -1.019340         0.674939
 O         4.679905         0.127907         0.017029
 C         4.181295         1.362992         0.501849
 C         2.717701         0.790914         0.903002
 H        -0.452463         1.242433         0.572934
 H         0.182827         1.670234        -1.020049
 H        -0.440018        -0.052057        -0.709217
 H         2.139147        -0.820259        -1.900032
 H         3.062609         0.737997        -1.608482
 H         2.584211        -2.414419        -0.247667
 H         2.977520        -2.088936         1.586343
 H         4.806775         1.772275         1.292501
 H         4.145490         2.092934        -0.293136
 H         2.600182         0.493107         1.955600
