19
Iteration:   396charge 0 multiplicity 1
 C         0.206852         1.015775        -0.144574
 C         1.484801         0.208405        -0.101884
 C         2.438380        -0.150937        -1.236361
 C         3.419608        -0.401182         0.105168
 C         2.709971        -1.653990         0.513269
 O         1.407595        -1.180883         0.498374
 O         4.637665         0.200845         0.151684
 C         3.946434         1.510058         0.494738
 C         2.586269         0.750246         0.833606
 H        -0.448414         1.018453         0.789504
 H         0.609209         2.064157        -0.240446
 H        -0.485833         0.822210        -0.978182
 H         2.162024        -1.051840        -1.744888
 H         2.801041         0.647487        -1.914745
 H         2.902149        -2.468840        -0.284019
 H         2.824617        -2.159216         1.503078
 H         4.378011         2.073084         1.400300
 H         3.955237         2.128962        -0.380203
 H         2.360845         0.771872         1.977752
