19
Iteration:   565
 C         0.153054         0.974805        -0.233146
 C         1.453952         0.243732        -0.037691
 C         2.507340        -0.067201        -1.265978
 C         3.391924        -0.412655         0.003753
 C         2.736602        -1.704056         0.524630
 O         1.283537        -1.153515         0.569823
 O         4.710456         0.218811         0.142234
 C         3.973632         1.510894         0.512782
 C         2.645868         0.678159         0.902882
 H        -0.561800         0.894176         0.641752
 H         0.485056         2.092612        -0.350874
 H        -0.408771         0.653523        -1.207635
 H         2.260976        -0.982064        -1.939059
 H         2.713131         0.871727        -1.746142
 H         2.562833        -2.622351        -0.047606
 H         3.191599        -1.907207         1.515717
 H         4.469315         1.976400         1.411887
 H         3.947914         2.335322        -0.340355
 H         2.377589         0.466359         1.882334
