19
Iteration:  1340
 C         0.089692         0.871694        -0.288337
 C         1.419966         0.277558        -0.036956
 C         2.526094         0.025243        -1.259519
 C         3.381233        -0.379764         0.002346
 C         2.720671        -1.662208         0.526178
 O         1.329394        -1.059652         0.642110
 O         4.689325         0.059046         0.107995
 C         4.027836         1.432160         0.551872
 C         2.644090         0.783621         0.844062
 H        -0.221457         1.229865         0.643203
 H         0.256523         1.678838        -0.967670
 H        -0.562399         0.138474        -0.670449
 H         2.277400        -0.727468        -1.927675
 H         3.005193         0.869599        -1.653550
 H         2.479818        -2.558645        -0.094008
 H         3.084271        -1.840780         1.518096
 H         4.585928         1.746469         1.462267
 H         3.881142         2.217353        -0.241263
 H         2.487999         0.585796         1.952471
