19
Iteration:  4036charge 0 multiplicity 1
 C         0.164698         0.980144        -0.212999
 C         1.486163         0.235025        -0.020593
 C         2.358127        -0.053298        -1.163976
 C         3.335246        -0.380194         0.076476
 C         2.620793        -1.662595         0.568546
 O         1.302313        -1.085371         0.560432
 O         4.754538         0.110799         0.115135
 C         4.083488         1.390969         0.374604
 C         2.696996         0.763834         0.824983
 H        -0.345000         1.190708         0.712373
 H         0.416487         1.989937        -0.574087
 H        -0.499132         0.457003        -0.899188
 H         2.001557        -0.934449        -1.672806
 H         2.919071         0.750607        -1.740272
 H         2.828667        -2.471331        -0.236908
 H         2.904410        -1.840609         1.681642
 H         4.598398         1.958861         1.247202
 H         4.047992         2.105526        -0.502228
 H         2.560166         0.606813         1.909146
