19
Iteration:  4560
 C         0.116156         0.952204        -0.161395
 C         1.459937         0.266196        -0.031910
 C         2.473986         0.016466        -1.221377
 C         3.389907        -0.434579         0.012362
 C         2.638506        -1.696573         0.580756
 O         1.277922        -1.052116         0.635904
 O         4.782121         0.136999         0.064577
 C         4.011624         1.405206         0.417983
 C         2.699935         0.713051         0.833753
 H        -0.569700         0.669575         0.626607
 H         0.249974         1.970480        -0.525578
 H        -0.553248         0.579186        -1.024366
 H         2.109756        -0.648513        -1.981047
 H         2.957403         0.992487        -1.651901
 H         2.416998        -2.677306         0.043302
 H         3.124868        -1.798207         1.573873
 H         4.580623         1.697804         1.328721
 H         4.083662         2.048314        -0.554190
 H         2.450882         0.654094         1.894999
