19
Iteration:  3925
 C         0.249836         1.074727        -0.137813
 C         1.480416         0.228493         0.001827
 C         2.486212        -0.043333        -1.202703
 C         3.397100        -0.443441         0.029015
 C         2.619978        -1.649243         0.651651
 O         1.233428        -1.164855         0.500851
 O         4.655526         0.144085         0.168631
 C         3.990049         1.465670         0.295572
 C         2.753018         0.663958         0.818178
 H        -0.220071         1.049811         0.828792
 H         0.575421         2.034587        -0.424670
 H        -0.397790         0.810226        -0.903372
 H         2.203702        -0.869656        -1.793803
 H         2.823777         0.824710        -1.720654
 H         2.714634        -2.428163        -0.087971
 H         2.904442        -1.913468         1.688011
 H         4.412670         2.113968         1.101534
 H         3.763233         2.048934        -0.662195
 H         2.563913         0.602004         1.892291
