19
Iteration:  3729charge 0 multiplicity 1
 C         0.097567         0.889843        -0.204869
 C         1.490199         0.330650        -0.079458
 C         2.489031        -0.005855        -1.180980
 C         3.386696        -0.437352         0.093720
 C         2.592783        -1.624123         0.596090
 O         1.261888        -1.127964         0.608963
 O         4.696432         0.087811         0.035399
 C         4.138348         1.448466         0.439788
 C         2.718369         0.781751         0.819734
 H        -0.580972         0.939220         0.697522
 H         0.222331         1.957428        -0.404669
 H        -0.382587         0.273668        -0.990281
 H         2.099481        -0.674724        -1.915068
 H         2.939586         0.862176        -1.611944
 H         2.681230        -2.294437        -0.218469
 H         2.699575        -2.184955         1.530531
 H         4.650374         1.880385         1.297523
 H         4.067956         2.137437        -0.301972
 H         2.603942         0.653116         1.896324
