19
Iteration:  1583charge 0 multiplicity 1
 C         0.212977         1.041004        -0.240350
 C         1.512353         0.308012        -0.020789
 C         2.434831        -0.052642        -1.148004
 C         3.352490        -0.459862         0.088323
 C         2.760281        -1.723855         0.593291
 O         1.302369        -1.151523         0.481751
 O         4.660353         0.220468         0.130616
 C         3.994748         1.427456         0.428935
 C         2.624492         0.698431         0.833639
 H        -0.489618         0.998014         0.624439
 H         0.595474         2.014048        -0.401506
 H        -0.365238         0.747672        -1.168231
 H         2.057056        -0.950792        -1.681531
 H         3.013618         0.474220        -1.822339
 H         3.034603        -2.641669        -0.050682
 H         2.671143        -1.988167         1.632068
 H         4.517578         1.925080         1.210199
 H         3.712733         2.216806        -0.404759
 H         2.431807         0.748226         1.941774
