19
Iteration:  1763
 C         0.116285         0.924675        -0.221077
 C         1.474254         0.201455        -0.117841
 C         2.544371         0.049984        -1.215228
 C         3.347994        -0.394779         0.050738
 C         2.643434        -1.614720         0.631185
 O         1.311351        -1.087730         0.531406
 O         4.712040         0.083544         0.113245
 C         3.968054         1.446581         0.418964
 C         2.689239         0.723248         0.899155
 H        -0.486668         0.734923         0.632701
 H         0.309753         1.997994        -0.350762
 H        -0.388862         0.461751        -1.000214
 H         2.387086        -0.755597        -1.891631
 H         2.793536         1.122167        -1.561640
 H         2.893752        -2.538365         0.125171
 H         2.687252        -1.982218         1.687256
 H         4.637406         1.770562         1.331318
 H         3.999296         2.157347        -0.493670
 H         2.676962         0.569125         1.950736
