19
Iteration:   987
 C         0.211174         0.973181        -0.115527
 C         1.440671         0.285133        -0.107930
 C         2.491532        -0.129348        -1.180121
 C         3.394705        -0.440427         0.091604
 C         2.689577        -1.703188         0.519252
 O         1.335237        -1.202343         0.425122
 O         4.616612         0.164560         0.143111
 C         3.973799         1.550877         0.487313
 C         2.655306         0.800697         0.851665
 H         0.100201         1.416385         0.950022
 H         0.303696         1.851257        -0.838120
 H        -0.697842         0.404733        -0.491480
 H         2.378190        -0.908658        -1.932362
 H         2.927793         0.804788        -1.647636
 H         2.913089        -2.683265        -0.033979
 H         2.976024        -1.822956         1.595013
 H         4.507877         2.144310         1.279149
 H         4.059300         2.114705        -0.379167
 H         2.305359         0.743942         1.944919
