19
Iteration:  1001
 C         0.093109         0.988683        -0.137288
 C         1.544281         0.251746        -0.093442
 C         2.524838        -0.030416        -1.163642
 C         3.325452        -0.403223         0.100497
 C         2.813367        -1.699966         0.615867
 O         1.312120        -1.155983         0.398948
 O         4.661929         0.176795         0.169852
 C         3.973780         1.388786         0.396950
 C         2.605715         0.763320         0.821485
 H        -0.125275         1.336558         0.853257
 H         0.178932         1.930415        -0.778506
 H        -0.790606         0.360558        -0.365792
 H         2.162527        -0.700918        -1.913294
 H         3.013165         0.849109        -1.628650
 H         2.946752        -2.445805        -0.100456
 H         2.905041        -2.002785         1.590637
 H         4.515150         1.861291         1.277649
 H         3.881874         2.028795        -0.376869
 H         2.450351         0.847330         1.948854
