19
Iteration:   193charge 0 multiplicity 1
 C         0.042040         0.784764        -0.223080
 C         1.479926         0.361470        -0.024483
 C         2.388672        -0.024366        -1.223443
 C         3.354446        -0.365587        -0.024204
 C         2.703439        -1.577514         0.514295
 O         1.341548        -1.086606         0.552174
 O         4.692685         0.142831         0.105944
 C         4.092502         1.401113         0.574110
 C         2.724511         0.727370         0.843054
 H        -0.549426         0.534473         0.729415
 H         0.126554         1.835913        -0.320768
 H        -0.451926         0.535385        -1.146168
 H         2.106805        -0.964478        -1.835281
 H         2.834597         0.851342        -1.871412
 H         2.867087        -2.597819        -0.017698
 H         3.129958        -1.747511         1.578718
 H         4.518523         1.735494         1.466422
 H         4.224151         2.161548        -0.202208
 H         2.508399         0.582282         1.949401
