19
Iteration:  2503
 C         0.049410         0.781118        -0.265930
 C         1.456322         0.373172        -0.003915
 C         2.460126        -0.005716        -1.209867
 C         3.372242        -0.433152         0.046938
 C         2.636503        -1.649154         0.631503
 O         1.283738        -0.993037         0.539388
 O         4.751133         0.066623         0.044008
 C         4.110441         1.427281         0.514364
 C         2.746172         0.783748         0.827656
 H        -0.282780         1.149037         0.756215
 H         0.158026         1.562666        -0.973867
 H        -0.577068        -0.071433        -0.643867
 H         2.026615        -0.660207        -1.943764
 H         2.880973         0.875048        -1.778035
 H         2.396048        -2.647145         0.295100
 H         2.854760        -1.737054         1.676317
 H         4.655257         1.861055         1.345481
 H         4.025343         1.990683        -0.364406
 H         2.623077         0.685310         1.902110
