19
Iteration:  4902
 C         0.070377         0.939734        -0.230315
 C         1.501396         0.302045        -0.015359
 C         2.483302         0.002850        -1.185094
 C         3.377075        -0.451760         0.027528
 C         2.712839        -1.662953         0.535645
 O         1.307692        -1.059746         0.636179
 O         4.591770         0.027816         0.028456
 C         4.100673         1.384669         0.433219
 C         2.728938         0.839180         0.885540
 H        -0.433677         0.822723         0.738865
 H         0.038325         2.024176        -0.253891
 H        -0.372593         0.478307        -1.029864
 H         2.023284        -0.774986        -1.802715
 H         2.969257         0.852355        -1.637022
 H         2.757177        -2.279444        -0.388509
 H         2.887797        -2.048913         1.538975
 H         4.633947         1.883679         1.274755
 H         4.109402         2.045620        -0.401824
 H         2.588145         0.768138         2.010500
