19
Iteration:  4759charge 0 multiplicity 1
 C         0.102588         0.857995        -0.167144
 C         1.473153         0.299198        -0.035645
 C         2.403941        -0.032933        -1.207531
 C         3.246248        -0.437851         0.053159
 C         2.675433        -1.700377         0.566727
 O         1.309156        -1.034727         0.545620
 O         4.677251         0.116769         0.051241
 C         4.147428         1.375798         0.437241
 C         2.736341         0.848829         0.859769
 H        -0.386048         0.918925         0.781083
 H         0.314474         1.907233        -0.195322
 H        -0.488241         0.589273        -1.003423
 H         2.141395        -0.800953        -1.994752
 H         2.964017         0.752761        -1.653251
 H         2.929967        -2.548191        -0.165369
 H         2.850894        -2.031191         1.614269
 H         4.716231         1.734816         1.354519
 H         4.350702         2.263233        -0.231686
 H         2.685281         0.881920         1.958694
