19
Iteration:  4608charge 0 multiplicity 1
 C         0.026728         0.903494        -0.133237
 C         1.496888         0.363115        -0.037245
 C         2.397876         0.009522        -1.185012
 C         3.405762        -0.377557         0.015902
 C         2.630031        -1.687694         0.609397
 O         1.320770        -1.106623         0.529522
 O         4.746233         0.059750         0.102969
 C         4.199470         1.421179         0.429852
 C         2.676967         0.801342         0.795565
 H        -0.622831         0.720040         0.738679
 H         0.091797         1.861656        -0.656090
 H        -0.594682         0.393349        -0.880278
 H         2.151210        -0.939452        -1.716827
 H         2.630718         0.799715        -1.803015
 H         2.650426        -2.410927        -0.151754
 H         2.803486        -2.116801         1.555627
 H         4.547346         1.765179         1.397063
 H         4.105287         2.093600        -0.324994
 H         2.457581         0.893548         1.876106
