19
Iteration:  4919charge 0 multiplicity 1
 C         0.208203         0.969646        -0.143761
 C         1.467531         0.360090        -0.058846
 C         2.436621        -0.061716        -1.138333
 C         3.306270        -0.370407         0.090434
 C         2.610747        -1.734944         0.532713
 O         1.345970        -1.105114         0.607006
 O         4.671257         0.116532         0.024752
 C         4.070563         1.388587         0.426952
 C         2.644546         0.759421         0.832879
 H        -0.372672         0.823005         0.811197
 H         0.424848         2.048310        -0.355501
 H        -0.240567         0.516683        -1.171817
 H         2.232663        -0.831826        -1.980460
 H         2.807411         0.714197        -1.849569
 H         2.609302        -2.547993        -0.223020
 H         3.113450        -1.952524         1.496382
 H         4.690274         1.805128         1.222141
 H         4.226952         2.203463        -0.376917
 H         2.582194         0.818586         1.915835
