19
Iteration:  4522
 C         0.224184         1.042726        -0.107199
 C         1.491729         0.251262        -0.066647
 C         2.407848        -0.117580        -1.222352
 C         3.361186        -0.443159         0.060840
 C         2.710795        -1.661077         0.535345
 O         1.311358        -1.136446         0.509138
 O         4.711120         0.143414         0.070972
 C         3.961726         1.400374         0.439963
 C         2.651463         0.796690         0.913640
 H        -0.136186         1.394124         0.920021
 H         0.673604         1.949663        -0.648867
 H        -0.588893         0.714466        -0.746512
 H         2.022691        -1.070045        -1.734898
 H         2.820688         0.478327        -1.969719
 H         2.681391        -2.576425        -0.141884
 H         3.074303        -1.831001         1.616469
 H         4.481521         2.009157         1.178004
 H         3.743914         2.202665        -0.313010
 H         2.449486         0.890564         2.010849
