19
Iteration:  1094
 C         0.144688         0.913500        -0.235528
 C         1.487789         0.226177        -0.030146
 C         2.455514        -0.018868        -1.181005
 C         3.332100        -0.456479         0.049475
 C         2.630186        -1.616827         0.596645
 O         1.351369        -1.115728         0.495321
 O         4.706261         0.191816         0.125126
 C         4.027539         1.524019         0.461021
 C         2.703267         0.646507         0.861612
 H        -0.599747         0.689981         0.530828
 H         0.453878         1.891511        -0.347160
 H        -0.247362         0.431263        -1.094194
 H         2.015430        -0.724118        -1.906686
 H         2.759294         0.874345        -1.809057
 H         2.727539        -2.520187        -0.010750
 H         2.855004        -1.746603         1.710343
 H         4.568290         1.887414         1.319028
 H         3.896389         2.278771        -0.416746
 H         2.567668         0.612139         1.930112
