19
Iteration:   755charge 0 multiplicity 1
 C         0.067650         0.778071        -0.203066
 C         1.455533         0.306195        -0.106292
 C         2.397813         0.003299        -1.266522
 C         3.360353        -0.356817         0.013046
 C         2.716914        -1.633409         0.542278
 O         1.329934        -1.148783         0.493478
 O         4.670176         0.085120         0.219660
 C         4.113596         1.506040         0.548293
 C         2.709838         0.812470         0.829491
 H        -0.398897         0.627370         0.880321
 H         0.173708         1.896383        -0.273452
 H        -0.536322         0.520898        -1.063202
 H         2.261283        -0.916198        -1.798108
 H         2.831067         0.850629        -1.834966
 H         2.827644        -2.485633        -0.100344
 H         2.785251        -1.918925         1.566271
 H         4.668092         1.918761         1.416924
 H         4.341003         2.271344        -0.233057
 H         2.472621         0.770951         1.838326
