19
Iteration:  1004
 C         0.097806         0.994081        -0.136282
 C         1.508187         0.248970        -0.084265
 C         2.539505         0.009639        -1.179709
 C         3.343400        -0.383972         0.110999
 C         2.789549        -1.706418         0.622788
 O         1.323589        -1.150340         0.403363
 O         4.671939         0.166220         0.169003
 C         3.977832         1.376307         0.403951
 C         2.606218         0.749022         0.823131
 H        -0.202267         1.325851         0.839427
 H         0.096873         1.843863        -0.757342
 H        -0.684811         0.337059        -0.424105
 H         2.142253        -0.781723        -1.894098
 H         2.979233         0.814745        -1.712836
 H         2.918724        -2.474240        -0.122275
 H         2.975220        -2.019624         1.696826
 H         4.435518         1.847884         1.232201
 H         3.878880         2.148212        -0.499033
 H         2.472400         0.758816         1.850920
