19
Iteration:  1678charge 0 multiplicity 1
 C         0.126845         0.900166        -0.203907
 C         1.485131         0.287868        -0.103150
 C         2.451247         0.011942        -1.177680
 C         3.344947        -0.439103         0.046899
 C         2.644094        -1.660619         0.594398
 O         1.321605        -1.108406         0.503916
 O         4.724863         0.116724         0.170770
 C         4.007534         1.473080         0.488282
 C         2.730887         0.729003         0.815278
 H        -0.390796         1.317292         0.703411
 H         0.161298         1.685504        -0.998096
 H        -0.586813         0.169271        -0.738939
 H         2.105167        -0.643506        -1.960127
 H         2.928249         0.911235        -1.736848
 H         2.695022        -2.608443        -0.001520
 H         2.858603        -1.865178         1.708161
 H         4.649084         1.985194         1.235887
 H         4.090217         2.072506        -0.390692
 H         2.549117         0.721750         1.961780
