19
Iteration:  2112
 C         0.151882         0.865447        -0.239876
 C         1.502978         0.259245        -0.084197
 C         2.469139         0.022556        -1.270410
 C         3.351442        -0.419931         0.009588
 C         2.628432        -1.632034         0.617414
 O         1.335687        -1.097037         0.583662
 O         4.654670         0.117685         0.118566
 C         4.072201         1.441673         0.492332
 C         2.687248         0.782079         0.886970
 H        -0.408284         0.677253         0.741242
 H         0.248119         1.937575        -0.441940
 H        -0.429197         0.299719        -1.008798
 H         2.036740        -0.764892        -2.005939
 H         2.668641         0.971345        -1.765943
 H         2.712723        -2.511820        -0.073413
 H         2.841312        -2.017445         1.616337
 H         4.565351         1.797719         1.312631
 H         4.306481         2.133032        -0.412100
 H         2.542380         0.828448         1.959269
