19
Iteration:   238charge 0 multiplicity 1
 C         0.224171         0.989028        -0.069917
 C         1.483989         0.184232        -0.052725
 C         2.571719         0.006993        -1.194405
 C         3.372279        -0.371428         0.108480
 C         2.659612        -1.670549         0.518324
 O         1.319228        -1.238900         0.454607
 O         4.621809         0.173482         0.149752
 C         3.979615         1.490641         0.366215
 C         2.591402         0.801472         0.817140
 H        -0.228761         0.833109         0.964157
 H         0.392324         2.013167        -0.309665
 H        -0.444668         0.574346        -0.824669
 H         2.275424        -1.004941        -1.640207
 H         2.954781         0.934985        -1.704590
 H         2.705622        -2.575595        -0.211505
 H         2.927668        -2.150500         1.548201
 H         4.451270         1.890286         1.182737
 H         3.991747         2.221767        -0.454721
 H         2.609781         0.653561         1.956466
