19
Iteration:  4878
 C         0.082875         0.873010        -0.151549
 C         1.512419         0.324304         0.006736
 C         2.356662         0.046325        -1.216541
 C         3.378016        -0.432890        -0.014286
 C         2.575070        -1.640482         0.587012
 O         1.264799        -1.039249         0.568317
 O         4.773949         0.098281         0.102359
 C         4.175197         1.382989         0.427872
 C         2.778727         0.697737         0.809429
 H        -0.551973         0.933417         0.756775
 H        -0.046061         1.918221        -0.464305
 H        -0.115171         0.123213        -1.027122
 H         2.150318        -0.864051        -1.924322
 H         2.584413         1.036362        -1.593464
 H         2.585629        -2.552179        -0.083397
 H         2.788543        -1.647226         1.653806
 H         4.587194         2.022290         1.204181
 H         3.966386         2.100591        -0.371688
 H         2.418754         0.481800         1.832604
