19
Iteration:  1856charge 0 multiplicity 1
 C         0.164638         1.085544        -0.185118
 C         1.481920         0.263066        -0.114789
 C         2.484071        -0.040721        -1.150333
 C         3.404649        -0.449597         0.090282
 C         2.750047        -1.685750         0.630375
 O         1.290067        -1.187432         0.454325
 O         4.698294         0.172314         0.087491
 C         3.946428         1.435333         0.449859
 C         2.615856         0.741144         0.875211
 H        -0.228273         1.440552         0.803911
 H         0.418940         1.965800        -0.850315
 H        -0.556448         0.390494        -0.728071
 H         2.082231        -0.744288        -1.909328
 H         3.024782         0.843627        -1.606685
 H         2.775831        -2.660944         0.111464
 H         2.955799        -1.970024         1.675174
 H         4.543586         1.795696         1.212205
 H         3.891544         2.101498        -0.408527
 H         2.395195         0.398951         1.979229
