19
Iteration:  4232
 C         0.196578         1.068103        -0.071367
 C         1.490717         0.243654        -0.071236
 C         2.451195        -0.122655        -1.195295
 C         3.359793        -0.435583         0.147617
 C         2.611345        -1.738814         0.588821
 O         1.290330        -1.144329         0.489586
 O         4.703959         0.215077         0.114365
 C         3.973756         1.473560         0.325490
 C         2.733686         0.735324         0.793538
 H        -0.245892         0.891746         0.932376
 H         0.563184         2.108040        -0.323256
 H        -0.590170         0.865712        -0.853652
 H         2.227497        -0.947929        -1.857712
 H         2.904314         0.746391        -1.650582
 H         2.683810        -2.668127         0.021608
 H         2.983278        -1.989439         1.587236
 H         4.466524         2.031081         1.169749
 H         4.076647         1.925011        -0.678652
 H         2.503816         0.730523         1.874112
