19
Iteration:  3572charge 0 multiplicity 1
 C         0.003411         0.849093        -0.210615
 C         1.501453         0.393914         0.017206
 C         2.416336         0.019968        -1.206800
 C         3.392689        -0.441232         0.099358
 C         2.695056        -1.631257         0.596744
 O         1.320040        -1.028407         0.542821
 O         4.670757         0.024819         0.092608
 C         4.094766         1.397189         0.433175
 C         2.777799         0.792302         0.797268
 H        -0.682226         0.858792         0.641438
 H         0.028427         1.933426        -0.573700
 H        -0.347607         0.229689        -1.074020
 H         2.122861        -0.962462        -1.737712
 H         2.841290         0.823431        -1.868775
 H         2.830640        -2.437715        -0.083287
 H         2.862980        -1.963163         1.601196
 H         4.625787         1.876024         1.270650
 H         4.127589         2.012900        -0.439103
 H         2.450816         0.638510         1.880426
