19
Iteration:  4880
 C         0.076182         0.863763        -0.163351
 C         1.502973         0.336189         0.000338
 C         2.358901         0.043497        -1.208274
 C         3.353203        -0.420988         0.006233
 C         2.582591        -1.648795         0.569811
 O         1.286630        -1.029202         0.570893
 O         4.785221         0.092810         0.099192
 C         4.166985         1.382201         0.408409
 C         2.774161         0.694960         0.812519
 H        -0.598790         0.914602         0.693105
 H        -0.011507         1.904816        -0.448222
 H        -0.161221         0.238264        -0.967542
 H         2.180870        -0.839137        -1.818624
 H         2.603704         1.019346        -1.522557
 H         2.536043        -2.600749        -0.045811
 H         2.845270        -1.655272         1.633534
 H         4.608557         1.952262         1.269454
 H         3.964074         2.082462        -0.368523
 H         2.399539         0.465190         1.841559
