19
Iteration:  3353
 C         0.215456         1.092506        -0.149970
 C         1.511565         0.320822        -0.017818
 C         2.439733        -0.118114        -1.111239
 C         3.334173        -0.458893         0.126513
 C         2.694457        -1.675895         0.543185
 O         1.302751        -1.164486         0.479583
 O         4.642923         0.201999         0.085728
 C         4.011593         1.452718         0.338752
 C         2.673631         0.639294         0.870093
 H        -0.296465         1.487274         0.646389
 H         0.586555         1.880840        -0.749187
 H        -0.516504         0.470290        -0.616290
 H         2.182025        -0.943797        -1.789506
 H         2.952581         0.645520        -1.658846
 H         2.769189        -2.562632        -0.097232
 H         3.060366        -1.815671         1.555170
 H         4.440742         1.954542         1.125366
 H         3.877978         2.172860        -0.499405
 H         2.531088         0.587559         1.941652
