19
Iteration:  1835charge 0 multiplicity 1
 C         0.210144         0.933941        -0.207720
 C         1.524276         0.226091        -0.065953
 C         2.528960         0.029239        -1.215119
 C         3.325691        -0.395680         0.062960
 C         2.629964        -1.660581         0.568660
 O         1.321210        -1.133834         0.538626
 O         4.627159         0.147172         0.126017
 C         3.977040         1.423999         0.483601
 C         2.680850         0.742172         0.804625
 H        -0.149064         1.300134         0.801388
 H         0.382243         1.810328        -0.952320
 H        -0.599937         0.184520        -0.557899
 H         2.400401        -0.738627        -2.000317
 H         2.782228         1.059824        -1.658630
 H         2.463581        -2.684662         0.119303
 H         3.101889        -1.800277         1.572331
 H         4.437613         1.866984         1.323117
 H         4.120660         2.163199        -0.304236
 H         2.649035         0.542122         1.946043
