19
Iteration:   472charge 0 multiplicity 1
 C         0.078061         0.777886        -0.220398
 C         1.499854         0.336898        -0.048452
 C         2.441552        -0.067408        -1.259526
 C         3.282486        -0.298764         0.076812
 C         2.636237        -1.610963         0.466683
 O         1.387955        -1.137980         0.510092
 O         4.674872         0.115765         0.197165
 C         4.132152         1.448283         0.544539
 C         2.676623         0.835312         0.841467
 H        -0.358974         1.172043         0.711861
 H         0.063725         1.619773        -0.909552
 H        -0.583711         0.013272        -0.598429
 H         2.051343        -0.918272        -1.744958
 H         2.788738         0.866739        -1.765421
 H         2.784137        -2.429265        -0.341864
 H         3.078012        -2.060196         1.396708
 H         4.646845         1.824561         1.408460
 H         4.217833         2.159597        -0.202883
 H         2.632481         0.565107         2.015071
