19
Iteration:  2597
 C         0.149158         1.059871        -0.083555
 C         1.545937         0.267035        -0.018168
 C         2.485166        -0.132561        -1.143351
 C         3.377136        -0.468263         0.199336
 C         2.585271        -1.701234         0.616847
 O         1.294239        -1.134364         0.407223
 O         4.711520         0.203541         0.145190
 C         3.961895         1.446859         0.266035
 C         2.732330         0.731304         0.770169
 H        -0.408809         0.935257         0.849774
 H         0.494743         2.163384        -0.255430
 H        -0.430806         0.775940        -0.952428
 H         2.103266        -0.954005        -1.740361
 H         3.009333         0.637289        -1.814118
 H         2.830995        -2.608634        -0.027876
 H         2.911309        -1.812626         1.720560
 H         4.418082         2.138961         1.028963
 H         3.690975         1.867879        -0.711615
 H         2.535622         0.819715         1.872447
