19
Iteration:   519charge 0 multiplicity 1
 C         0.224692         0.929747        -0.151092
 C         1.518878         0.191509        -0.096944
 C         2.550537         0.039773        -1.253625
 C         3.354706        -0.411628         0.006567
 C         2.671653        -1.699154         0.608656
 O         1.291201        -1.173894         0.487801
 O         4.640192         0.191882         0.126015
 C         3.909814         1.465958         0.505331
 C         2.680296         0.771660         0.871133
 H        -0.390602         0.790338         0.846337
 H         0.321520         1.986804        -0.400326
 H        -0.412984         0.461479        -0.953724
 H         2.297107        -0.737199        -1.923515
 H         2.958329         0.952082        -1.656466
 H         2.887000        -2.650043         0.014432
 H         2.798319        -1.910353         1.685109
 H         4.602973         2.055595         1.209023
 H         3.939210         2.073797        -0.400088
 H         2.456253         0.742083         1.972087
