19
Iteration:  4300
 C         0.080213         0.842838        -0.207316
 C         1.416308         0.292167        -0.039226
 C         2.475643        -0.035679        -1.182579
 C         3.305797        -0.375159         0.044206
 C         2.660469        -1.550657         0.585138
 O         1.286633        -1.025450         0.610525
 O         4.731730         0.068636        -0.017664
 C         4.175049         1.355169         0.462135
 C         2.721553         0.781689         0.875328
 H        -0.425661         1.073224         0.706296
 H         0.110473         1.661159        -0.888295
 H        -0.558428         0.052400        -0.730435
 H         2.293140        -0.807087        -1.887587
 H         2.671094         0.936209        -1.539894
 H         2.767611        -2.408334        -0.060733
 H         2.889164        -1.964506         1.551643
 H         4.493039         1.671238         1.466913
 H         4.151230         2.184503        -0.356803
 H         2.585151         0.697655         1.896436
