19
Iteration:  2216charge 0 multiplicity 1
 C         0.050685         0.832231        -0.224061
 C         1.467274         0.323438         0.002340
 C         2.470261         0.002488        -1.237007
 C         3.353778        -0.407019         0.081594
 C         2.664289        -1.586831         0.604911
 O         1.309060        -1.062001         0.526040
 O         4.715901         0.083788         0.133396
 C         4.108562         1.382421         0.411340
 C         2.715816         0.778370         0.805867
 H        -0.425326         0.799421         0.764525
 H        -0.046558         1.906392        -0.614199
 H        -0.530854         0.115424        -0.850766
 H         2.140135        -0.677421        -2.064125
 H         2.850982         0.903940        -1.687929
 H         2.594382        -2.527616        -0.005604
 H         2.968460        -1.758626         1.673624
 H         4.680931         1.731099         1.381139
 H         4.108283         2.147825        -0.309188
 H         2.583665         0.620141         1.917964
