19
Iteration:   967
 C         0.185098         0.946701        -0.173953
 C         1.462623         0.265413        -0.026962
 C         2.487431        -0.092529        -1.274357
 C         3.432594        -0.428609         0.029734
 C         2.700745        -1.674489         0.585759
 O         1.253529        -1.102398         0.511716
 O         4.734041         0.297014         0.164814
 C         3.931966         1.397758         0.470459
 C         2.673151         0.662958         0.814400
 H        -0.026540         1.242876         0.850099
 H         0.343746         1.907315        -0.783025
 H        -0.629200         0.416795        -0.730050
 H         2.132184        -0.901196        -1.871587
 H         2.772461         0.816908        -1.874742
 H         2.827580        -2.439891        -0.129624
 H         2.820466        -2.080605         1.519663
 H         4.311112         1.896015         1.454391
 H         3.940104         2.189750        -0.222254
 H         2.514015         0.423185         1.958380
