19
Iteration:  2076charge 0 multiplicity 1
 C        -0.008587         0.839255        -0.222620
 C         1.522823         0.309052        -0.046072
 C         2.509525        -0.052118        -1.274856
 C         3.384390        -0.394124         0.024935
 C         2.648619        -1.634186         0.605661
 O         1.307480        -1.038868         0.532936
 O         4.716468         0.089121         0.123724
 C         4.126665         1.411344         0.532267
 C         2.702817         0.780089         0.814827
 H        -0.474109         0.570849         0.709544
 H        -0.132598         1.958837        -0.292534
 H        -0.567266         0.382596        -0.990858
 H         1.935032        -0.830835        -1.849894
 H         2.575642         0.809722        -1.910383
 H         2.743368        -2.433655        -0.131461
 H         2.959387        -1.847333         1.605760
 H         4.492104         1.868921         1.535436
 H         4.273981         2.277507        -0.257838
 H         2.472282         0.836026         1.960911
