19
Iteration:  4658
 C         0.223442         1.083830        -0.140106
 C         1.525857         0.297163        -0.076820
 C         2.371572        -0.086111        -1.205559
 C         3.369575        -0.460346         0.102549
 C         2.658125        -1.685047         0.543807
 O         1.326207        -1.136271         0.544787
 O         4.715997         0.170870         0.054495
 C         3.958690         1.424899         0.457975
 C         2.692512         0.674510         0.845242
 H        -0.074750         1.274002         0.857652
 H         0.295863         1.923591        -0.805990
 H        -0.658350         0.505848        -0.527126
 H         1.918934        -0.741066        -1.947485
 H         3.014112         0.718518        -1.690636
 H         2.878963        -2.599376        -0.116532
 H         2.830237        -1.860028         1.642559
 H         4.258056         2.043743         1.323800
 H         3.857749         2.137595        -0.467462
 H         2.697713         0.562399         1.913136
