19
Iteration:  2830charge 0 multiplicity 1
 C         0.070177         0.884733        -0.257732
 C         1.405201         0.327257        -0.046143
 C         2.470973        -0.013239        -1.136455
 C         3.344366        -0.376001         0.065715
 C         2.631273        -1.688191         0.575685
 O         1.354663        -1.045236         0.683111
 O         4.763300         0.064222         0.057834
 C         4.117907         1.397276         0.406358
 C         2.657735         0.769772         0.774048
 H        -0.328565         1.012929         0.751393
 H         0.091066         1.847276        -0.742976
 H        -0.639632         0.287721        -0.954521
 H         2.332414        -0.755632        -2.002834
 H         2.602659         0.944178        -1.626595
 H         2.526425        -2.413141        -0.268834
 H         3.186448        -1.933371         1.539294
 H         4.563781         1.618902         1.431563
 H         4.155986         2.106718        -0.326050
 H         2.542515         0.869385         1.867935
