19
Iteration:  4945charge 0 multiplicity 1
 C         0.174374         1.077299        -0.076043
 C         1.455621         0.283079        -0.033126
 C         2.423706        -0.149457        -1.252348
 C         3.359476        -0.448549         0.002841
 C         2.691380        -1.702606         0.615839
 O         1.232625        -1.048145         0.512226
 O         4.742483         0.172566         0.095436
 C         3.983021         1.453432         0.451964
 C         2.770035         0.611901         0.816994
 H        -0.352523         1.194255         0.900148
 H         0.330945         2.091063        -0.503070
 H        -0.334718         0.479176        -0.857392
 H         2.335343        -0.829711        -2.107695
 H         2.696105         0.817804        -1.674467
 H         2.645384        -2.619163         0.004745
 H         3.027123        -1.682026         1.651246
 H         4.665515         2.011838         1.091796
 H         3.735841         2.078461        -0.366752
 H         2.645331         0.472961         1.921865
