19
Iteration:  4969
 C         0.212218         1.026685        -0.075039
 C         1.527719         0.281646        -0.048238
 C         2.468217        -0.058950        -1.209349
 C         3.352050        -0.431922         0.057519
 C         2.653101        -1.680518         0.599384
 O         1.345300        -1.118108         0.503648
 O         4.647750         0.105645         0.096565
 C         3.943610         1.403999         0.406678
 C         2.701026         0.730558         0.776726
 H         0.074031         1.396296         0.955740
 H         0.366127         1.997942        -0.567434
 H        -0.621983         0.543359        -0.498208
 H         2.085191        -0.785127        -1.863839
 H         2.718570         0.843280        -1.891362
 H         2.758076        -2.474732        -0.144647
 H         2.913834        -1.731225         1.668875
 H         4.626709         1.717392         1.231269
 H         3.840123         2.146492        -0.340703
 H         2.344948         0.789295         1.848711
