19
Iteration:  3853
 C        -0.021486         0.887464        -0.262869
 C         1.417631         0.313531        -0.009273
 C         2.430292         0.049737        -1.182415
 C         3.420978        -0.385681         0.016104
 C         2.635781        -1.568921         0.627770
 O         1.310860        -1.040668         0.563486
 O         4.762889         0.018024         0.104213
 C         4.134001         1.368414         0.459149
 C         2.757349         0.721174         0.797029
 H        -0.421473         1.022098         0.780274
 H        -0.087756         1.835859        -0.891070
 H        -0.677920         0.058103        -0.790204
 H         2.055077        -0.735355        -1.874476
 H         2.573148         1.056838        -1.644189
 H         2.628973        -2.493573        -0.057790
 H         2.952651        -1.773436         1.661914
 H         4.757357         1.629224         1.322436
 H         4.269255         2.118250        -0.311791
 H         2.769082         0.525518         1.873096
