19
Iteration:  4663charge 0 multiplicity 1
 C         0.202838         1.088290        -0.171216
 C         1.499522         0.295237        -0.054369
 C         2.368073        -0.134968        -1.174782
 C         3.385401        -0.414315         0.075074
 C         2.702740        -1.732224         0.558631
 O         1.300144        -1.132070         0.509468
 O         4.702137         0.175052         0.064953
 C         4.012999         1.472068         0.402492
 C         2.694927         0.639503         0.901200
 H        -0.014227         1.485335         0.922025
 H         0.155180         2.127119        -0.666827
 H        -0.622687         0.497124        -0.574990
 H         1.968593        -0.745038        -2.025904
 H         2.912465         0.620465        -1.649859
 H         2.844967        -2.584589        -0.069910
 H         2.770439        -2.054748         1.589284
 H         4.370504         2.099308         1.251254
 H         3.992437         2.254402        -0.330593
 H         2.479450         0.553512         2.013597
