19
Iteration:   313
 C         0.015103         0.858195        -0.236799
 C         1.446086         0.302669        -0.105961
 C         2.480411         0.008764        -1.168771
 C         3.345789        -0.354778         0.058699
 C         2.725909        -1.702653         0.551258
 O         1.388044        -1.097039         0.579957
 O         4.695293         0.156145         0.033387
 C         4.101749         1.384585         0.593230
 C         2.624684         0.775984         0.794822
 H        -0.309239         1.125819         0.815838
 H         0.014895         1.710756        -0.833813
 H        -0.654902         0.161053        -0.710995
 H         2.354365        -0.868684        -1.996363
 H         2.652182         1.047065        -1.661290
 H         2.884885        -2.479925        -0.203291
 H         2.888727        -2.021226         1.604173
 H         4.397162         1.669636         1.652860
 H         4.445303         2.241434        -0.045390
 H         2.407700         0.705892         1.820900
