19
Iteration:   618
 C         0.000533         0.793798        -0.181346
 C         1.470825         0.353640        -0.079032
 C         2.525604        -0.032443        -1.135724
 C         3.347114        -0.362099         0.156493
 C         2.712839        -1.601198         0.512488
 O         1.302691        -1.122633         0.392476
 O         4.675182         0.163284         0.161378
 C         4.149904         1.403551         0.493439
 C         2.706011         0.777000         0.834140
 H        -0.179341         1.113355         0.859814
 H        -0.296769         1.667800        -0.834668
 H        -0.644810        -0.031050        -0.605364
 H         2.101180        -0.822596        -1.839825
 H         2.853118         0.733636        -1.792806
 H         2.841266        -2.435989        -0.254417
 H         2.820572        -1.943763         1.569414
 H         4.688898         1.962915         1.296463
 H         4.050095         2.044432        -0.299339
 H         2.458285         0.587211         1.929449
