19
Iteration:  4057charge 0 multiplicity 1
 C         0.185148         1.053237        -0.085937
 C         1.549482         0.302772        -0.077627
 C         2.480483        -0.121093        -1.251052
 C         3.424991        -0.522554         0.048442
 C         2.613474        -1.739199         0.627201
 O         1.228092        -1.071849         0.549774
 O         4.684312         0.178638         0.169687
 C         3.974313         1.484769         0.363901
 C         2.753876         0.686797         0.743239
 H        -0.264416         1.112797         0.891043
 H         0.400519         2.105214        -0.269414
 H        -0.482107         0.589771        -0.786943
 H         2.133468        -0.891679        -1.957105
 H         2.752454         0.814480        -1.823569
 H         2.479339        -2.679660        -0.068144
 H         2.947558        -1.887205         1.761801
 H         4.401835         2.170948         1.188940
 H         3.952507         2.057289        -0.612756
 H         2.589082         0.668682         1.844118
