19
Iteration:  2890charge 0 multiplicity 1
 C         0.174589         1.079911        -0.103858
 C         1.491568         0.289031        -0.088287
 C         2.446522        -0.052161        -1.262503
 C         3.346404        -0.425099         0.136183
 C         2.674456        -1.694882         0.706117
 O         1.277508        -1.197308         0.463661
 O         4.718870         0.173751         0.103176
 C         4.001923         1.406611         0.379120
 C         2.722659         0.686980         0.813947
 H        -0.147044         1.313312         0.937189
 H         0.370612         2.071992        -0.634468
 H        -0.619492         0.500221        -0.525345
 H         2.197450        -0.818115        -1.986907
 H         2.821569         0.917259        -1.646110
 H         2.779667        -2.565872         0.093263
 H         2.958557        -1.920619         1.695763
 H         4.578412         2.148290         0.882000
 H         3.670742         2.022171        -0.623894
 H         2.440194         0.725260         1.866381
