19
Iteration:  2635charge 0 multiplicity 1
 C         0.176855         0.900159        -0.137331
 C         1.434159         0.244772        -0.116353
 C         2.428805        -0.077668        -1.239373
 C         3.289077        -0.438865        -0.005854
 C         2.676672        -1.579864         0.650317
 O         1.351111        -1.046487         0.587447
 O         4.662835         0.129896         0.125136
 C         4.097221         1.376853         0.468600
 C         2.718449         0.781073         0.769027
 H        -0.502541         0.808684         0.710178
 H         0.292918         1.897115        -0.459282
 H        -0.463720         0.575810        -1.025042
 H         2.082260        -0.805849        -2.027948
 H         2.857394         0.743883        -1.726800
 H         2.728797        -2.495663         0.100992
 H         2.861961        -1.857726         1.648366
 H         4.628916         1.930395         1.317024
 H         4.199256         2.139971        -0.356542
 H         2.526059         0.759529         1.847578
