19
Iteration:  4334
 C         0.140900         0.956521        -0.118429
 C         1.505886         0.368777        -0.013678
 C         2.402220        -0.087911        -1.226827
 C         3.376327        -0.422131         0.001064
 C         2.684439        -1.681350         0.600880
 O         1.313300        -1.066085         0.561915
 O         4.737413         0.063738         0.123289
 C         3.994319         1.427746         0.396463
 C         2.716964         0.749785         0.779043
 H        -0.268168         1.227975         0.852842
 H         0.181275         1.836536        -0.745456
 H        -0.458443         0.136361        -0.580005
 H         2.207118        -0.796701        -2.016118
 H         2.830658         0.788010        -1.811869
 H         2.606801        -2.522471        -0.108303
 H         2.736077        -1.803278         1.679180
 H         4.289637         1.915351         1.355218
 H         3.966267         2.319262        -0.356928
 H         2.538636         0.705434         1.843258
