19
Iteration:  2787charge 0 multiplicity 1
 C         0.111533         0.931516        -0.241788
 C         1.492930         0.347621         0.001613
 C         2.406132        -0.001672        -1.139447
 C         3.427855        -0.436764         0.068432
 C         2.620529        -1.655976         0.639744
 O         1.312763        -1.069422         0.564785
 O         4.728517         0.114684         0.019485
 C         4.029285         1.372477         0.397325
 C         2.752322         0.747090         0.851784
 H        -0.680587         0.805403         0.485377
 H         0.017605         1.976690        -0.449881
 H        -0.283294         0.225344        -1.069907
 H         2.183083        -0.969105        -1.777011
 H         2.773716         0.807079        -1.746830
 H         2.665595        -2.570231        -0.024998
 H         2.783967        -1.757814         1.748705
 H         4.614253         1.924236         1.285317
 H         3.994682         1.966157        -0.552432
 H         2.477851         0.728149         1.919219
