19
Iteration:  2816charge 0 multiplicity 1
 C         0.075509         0.849078        -0.275925
 C         1.504639         0.270636         0.046023
 C         2.425315         0.022219        -1.179231
 C         3.352936        -0.424884         0.012305
 C         2.672113        -1.619994         0.537728
 O         1.308197        -1.021274         0.659118
 O         4.638173         0.072407         0.068474
 C         4.118283         1.388301         0.421670
 C         2.767081         0.827035         0.859821
 H        -0.823569         0.955140         0.422967
 H         0.220656         1.844069        -0.676151
 H        -0.251898         0.065238        -0.943843
 H         2.100343        -0.796361        -1.872608
 H         2.915828         0.864555        -1.610788
 H         2.687201        -2.521946        -0.075008
 H         2.851417        -2.004763         1.558201
 H         4.664654         1.868118         1.129442
 H         4.191764         2.002188        -0.466186
 H         2.599837         0.669959         1.926765
