19
Iteration:  4405charge 0 multiplicity 1
 C         0.152946         0.993950        -0.188541
 C         1.497460         0.301573        -0.032938
 C         2.452281        -0.062674        -1.233613
 C         3.336918        -0.484264         0.028592
 C         2.669588        -1.690812         0.637864
 O         1.310251        -1.045352         0.563872
 O         4.672019         0.119117         0.031706
 C         4.006228         1.457694         0.454899
 C         2.722347         0.738900         0.907850
 H        -0.441534         0.811714         0.701914
 H         0.263304         2.060769        -0.394362
 H        -0.310959         0.481812        -1.009802
 H         2.064315        -0.863900        -1.926104
 H         2.837536         0.684241        -1.848918
 H         2.674042        -2.484849        -0.029836
 H         3.022326        -1.838663         1.618216
 H         4.749798         1.992952         0.999096
 H         3.870917         2.091232        -0.363325
 H         2.787391         0.343045         1.933482
