19
Iteration:  1479charge 0 multiplicity 1
 C         0.133394         0.819230        -0.248818
 C         1.483258         0.314198        -0.105920
 C         2.527234         0.058488        -1.120442
 C         3.345173        -0.398011         0.059993
 C         2.625507        -1.654913         0.583590
 O         1.301061        -1.100214         0.540410
 O         4.691353         0.125594         0.093463
 C         4.047328         1.430326         0.472681
 C         2.687122         0.712905         0.832175
 H        -0.361228         1.198159         0.656591
 H         0.219923         1.806774        -0.869505
 H        -0.579821         0.200443        -0.821177
 H         2.183749        -0.681850        -1.870215
 H         2.876950         0.991870        -1.451200
 H         2.611241        -2.577676         0.041598
 H         2.992650        -1.788412         1.582807
 H         4.497943         1.893271         1.408594
 H         4.046534         2.063424        -0.339577
 H         2.734137         0.608469         1.936360
