19
Iteration:  3601charge 0 multiplicity 1
 C         0.203094         0.993464        -0.198484
 C         1.475122         0.181779        -0.021166
 C         2.443985        -0.028326        -1.193896
 C         3.397299        -0.427844         0.020471
 C         2.701136        -1.712160         0.557360
 O         1.235197        -1.091729         0.656671
 O         4.649027         0.105298         0.130838
 C         4.069053         1.524812         0.423266
 C         2.674996         0.749106         0.769101
 H        -0.349315         0.984757         0.757291
 H         0.651498         1.932120        -0.462469
 H        -0.480360         0.889036        -1.047670
 H         2.304895        -0.855295        -1.919165
 H         2.639568         0.890573        -1.732653
 H         2.677994        -2.597438        -0.202741
 H         3.013892        -2.048018         1.571543
 H         4.670091         2.111705         1.148306
 H         4.098569         2.000607        -0.647639
 H         2.334279         0.610481         1.760269
