19
Iteration:  3732charge 0 multiplicity 1
 C         0.096247         0.918341        -0.198040
 C         1.491409         0.312546        -0.094261
 C         2.494714         0.002316        -1.146597
 C         3.365278        -0.431845         0.104277
 C         2.590843        -1.631686         0.606995
 O         1.281289        -1.128613         0.595434
 O         4.679506         0.094750         0.031263
 C         4.118613         1.437727         0.429910
 C         2.726813         0.764275         0.808201
 H        -0.571034         0.962990         0.634993
 H         0.212316         1.955482        -0.385572
 H        -0.372159         0.346450        -0.985275
 H         2.131432        -0.701264        -1.865487
 H         3.023689         0.841603        -1.555770
 H         2.735294        -2.389980        -0.234581
 H         2.820993        -2.141633         1.558277
 H         4.730205         1.829520         1.244811
 H         4.053609         2.257497        -0.307795
 H         2.543766         0.628286         1.840983
