19
Iteration:  3236
 C         0.056181         0.918604        -0.285557
 C         1.470189         0.340457        -0.021256
 C         2.460096         0.000055        -1.239733
 C         3.364063        -0.410742         0.008302
 C         2.722644        -1.638407         0.581915
 O         1.287187        -1.042783         0.681887
 O         4.729189         0.099520         0.110526
 C         4.057610         1.367868         0.439186
 C         2.703099         0.727310         0.809316
 H        -0.543679         0.892050         0.644029
 H         0.127954         2.007094        -0.606717
 H        -0.468509         0.126607        -0.784711
 H         2.143173        -0.900747        -1.773228
 H         2.612579         0.889379        -1.756734
 H         2.600612        -2.390762        -0.180874
 H         3.103617        -2.019988         1.547018
 H         4.712394         1.808132         1.299596
 H         4.124451         2.138008        -0.322333
 H         2.609480         0.393802         1.849491
