19
Iteration:  4474
 C         0.149000         0.924273        -0.125157
 C         1.538910         0.278587        -0.032922
 C         2.441586        -0.041578        -1.173740
 C         3.397446        -0.363371        -0.042777
 C         2.631630        -1.676403         0.607784
 O         1.268121        -1.035383         0.530708
 O         4.738321         0.108843         0.106279
 C         4.060413         1.359229         0.434913
 C         2.671762         0.763054         0.815837
 H        -0.215985         1.126316         0.921833
 H        -0.012875         1.774048        -0.828154
 H        -0.578892         0.089484        -0.503859
 H         2.039452        -0.703653        -1.897768
 H         2.727806         0.868057        -1.801997
 H         2.498203        -2.510368        -0.050587
 H         2.866122        -1.796576         1.645968
 H         4.559140         2.030774         1.154365
 H         4.092189         1.996801        -0.407609
 H         2.526981         0.534358         1.865393
