19
Iteration:  2593charge 0 multiplicity 1
 C         0.185559         1.044158        -0.092693
 C         1.567457         0.253618         0.002456
 C         2.469824        -0.126682        -1.178681
 C         3.401808        -0.441779         0.188573
 C         2.576957        -1.720671         0.613904
 O         1.291803        -1.117871         0.413147
 O         4.685176         0.229615         0.157166
 C         3.982590         1.451693         0.271125
 C         2.716717         0.707407         0.796059
 H        -0.432562         0.964089         0.822364
 H         0.437764         2.108184        -0.314164
 H        -0.553341         0.859997        -0.960245
 H         2.142583        -1.034157        -1.782897
 H         2.860684         0.585811        -1.856952
 H         2.709074        -2.679984         0.077162
 H         2.828661        -1.864076         1.663706
 H         4.448463         2.099099         0.923398
 H         3.745139         1.863345        -0.697227
 H         2.662223         0.805424         1.888935
