19
Iteration:  4401charge 0 multiplicity 1
 C         0.167595         1.014806        -0.185539
 C         1.526972         0.332789        -0.032154
 C         2.399154        -0.095087        -1.213143
 C         3.343675        -0.469302         0.020625
 C         2.662241        -1.713181         0.619080
 O         1.323137        -1.049864         0.548168
 O         4.677337         0.150729         0.047039
 C         4.002502         1.434481         0.448785
 C         2.714463         0.715024         0.915964
 H        -0.419024         0.752124         0.714270
 H         0.257548         2.075436        -0.446571
 H        -0.427843         0.563177        -0.983056
 H         2.195302        -0.963045        -1.902469
 H         2.854177         0.732002        -1.872615
 H         2.732482        -2.661121        -0.028176
 H         3.012031        -1.770524         1.703545
 H         4.857187         1.937619         0.974636
 H         3.794493         2.129614        -0.502593
 H         2.624040         0.468037         2.035191
