19
Iteration:   329
 C         0.001832         0.831606        -0.192219
 C         1.463517         0.352181        -0.022933
 C         2.484765        -0.032491        -1.218129
 C         3.368582        -0.369209         0.042130
 C         2.718518        -1.608524         0.541837
 O         1.312666        -1.186097         0.477542
 O         4.654003         0.127512         0.075989
 C         4.119532         1.430141         0.573209
 C         2.695818         0.863430         0.841239
 H        -0.624841         0.893226         0.675635
 H         0.052483         1.870534        -0.748160
 H        -0.479873         0.044929        -0.851707
 H         2.092603        -0.877304        -1.754912
 H         3.134155         0.671536        -1.629328
 H         2.809796        -2.579002        -0.097159
 H         3.159300        -1.908395         1.550069
 H         4.776832         1.624462         1.410983
 H         4.251170         2.266381        -0.123047
 H         2.416843         0.837490         2.022406
