19
Iteration:  2536
 C         0.069788         0.896692        -0.332432
 C         1.474472         0.314506        -0.096709
 C         2.418793        -0.075715        -1.217738
 C         3.297296        -0.391769         0.085101
 C         2.730687        -1.658235         0.625331
 O         1.311327        -1.081254         0.638143
 O         4.669606         0.072712        -0.028029
 C         4.174859         1.408597         0.612800
 C         2.712067         0.832731         0.818540
 H        -0.310830         1.415041         0.595899
 H         0.019576         1.755621        -0.909693
 H        -0.769454         0.216507        -0.650433
 H         2.036682        -0.843802        -1.850035
 H         2.897619         0.811232        -1.645349
 H         2.689230        -2.537816         0.006494
 H         3.100011        -1.790614         1.611633
 H         4.769810         1.769238         1.474818
 H         4.155671         2.208418        -0.099622
 H         2.471088         0.717846         1.859909
