19
Iteration:  1829
 C         0.190010         0.907031        -0.198983
 C         1.487400         0.217668        -0.108108
 C         2.499743        -0.001877        -1.197950
 C         3.365761        -0.399585         0.019342
 C         2.634763        -1.657083         0.554578
 O         1.320889        -1.083878         0.544371
 O         4.642074         0.158510         0.156590
 C         4.018122         1.427217         0.477744
 C         2.671758         0.774063         0.846896
 H        -0.120037         1.315263         0.732619
 H         0.215383         1.732025        -0.887795
 H        -0.440186         0.187529        -0.628903
 H         2.256792        -0.753591        -1.923128
 H         2.807732         0.975420        -1.577286
 H         2.525441        -2.639964         0.036634
 H         3.035827        -1.893724         1.553300
 H         4.563619         1.701090         1.474909
 H         4.040375         2.087941        -0.431792
 H         2.583690         0.396897         1.811000
