19
Iteration:  3737charge 0 multiplicity 1
 C         0.113129         0.958232        -0.198144
 C         1.485956         0.296277        -0.078216
 C         2.498257        -0.001600        -1.104999
 C         3.319402        -0.414443         0.113389
 C         2.613082        -1.680727         0.601417
 O         1.310517        -1.107204         0.566136
 O         4.660483         0.111804         0.027654
 C         4.080710         1.418745         0.416790
 C         2.732132         0.739065         0.800694
 H        -0.540021         0.864778         0.726261
 H         0.215616         2.063531        -0.506366
 H        -0.450334         0.501938        -1.059856
 H         2.235328        -0.799198        -1.887285
 H         3.079866         0.856073        -1.551448
 H         2.749669        -2.525958        -0.094274
 H         3.022623        -1.981139         1.598782
 H         4.784176         1.735828         1.222454
 H         4.076793         2.288175        -0.374742
 H         2.463925         0.643160         1.911445
