19
Iteration:  1497charge 0 multiplicity 1
 C         0.096038         0.851548        -0.227098
 C         1.446912         0.204583        -0.017337
 C         2.500014        -0.008791        -1.259074
 C         3.360402        -0.358596         0.019030
 C         2.676933        -1.630059         0.565248
 O         1.290504        -1.073405         0.521152
 O         4.687863         0.054446         0.142506
 C         4.109176         1.450911         0.509568
 C         2.677355         0.839529         0.878927
 H        -0.318130         1.200388         0.719292
 H        -0.036207         1.648584        -0.873531
 H        -0.461614         0.045945        -0.696935
 H         2.428994        -0.851679        -2.039824
 H         2.812144         0.951606        -1.682351
 H         2.776485        -2.393814        -0.236693
 H         2.771215        -1.928114         1.649329
 H         4.633418         1.821216         1.368849
 H         4.228380         2.289034        -0.265990
 H         2.398086         0.837898         1.906938
