19
Iteration:  2760charge 0 multiplicity 1
 C         0.232369         1.017154        -0.090313
 C         1.456573         0.219992        -0.176140
 C         2.485145        -0.146744        -1.229727
 C         3.345543        -0.400868         0.057604
 C         2.661298        -1.669475         0.643222
 O         1.291128        -1.103612         0.591767
 O         4.600853         0.147998         0.112048
 C         4.061413         1.484010         0.416709
 C         2.702208         0.748726         0.743535
 H        -0.146290         0.784913         0.943875
 H         0.305420         2.154949        -0.272454
 H        -0.597286         0.782189        -0.720012
 H         2.584814        -0.975752        -1.898215
 H         2.882133         0.748317        -1.808609
 H         2.734421        -2.545705         0.010877
 H         2.908626        -1.790529         1.685326
 H         4.515944         1.871000         1.226839
 H         4.127804         2.045772        -0.494212
 H         2.362320         0.688297         1.781997
