19
Iteration:  1713charge 0 multiplicity 1
 C         0.234593         1.026372        -0.174296
 C         1.497418         0.180181        -0.154417
 C         2.493508        -0.124830        -1.188019
 C         3.359582        -0.441193         0.051714
 C         2.668149        -1.626141         0.538358
 O         1.320475        -1.102617         0.559287
 O         4.660144         0.182985         0.123405
 C         3.953751         1.480367         0.523866
 C         2.646797         0.736324         0.828485
 H        -0.314525         1.198667         0.814983
 H         0.638172         1.959569        -0.558527
 H        -0.476066         0.535254        -0.965763
 H         2.195205        -1.040876        -1.780892
 H         2.935424         0.663054        -1.659491
 H         2.601011        -2.516213        -0.127474
 H         3.153149        -1.933096         1.441453
 H         4.368307         2.022199         1.303611
 H         3.853986         2.021770        -0.352197
 H         2.397664         0.540726         1.950487
