19
Iteration:   694
 C         0.278320         0.996602        -0.234186
 C         1.502403         0.273344        -0.032499
 C         2.406810        -0.121451        -1.144890
 C         3.370263        -0.418255         0.059018
 C         2.725438        -1.676889         0.495727
 O         1.282879        -1.203018         0.510050
 O         4.683137         0.296829         0.129214
 C         3.963335         1.446880         0.485193
 C         2.627358         0.727416         0.860694
 H        -0.320821         0.902932         0.641823
 H         0.430185         2.051431        -0.421119
 H        -0.314520         0.444736        -1.008420
 H         2.322926        -0.962523        -1.902770
 H         2.721740         0.669998        -1.762163
 H         2.860565        -2.491668        -0.311024
 H         2.803513        -2.189918         1.506953
 H         4.345064         1.831306         1.485610
 H         3.945218         2.209254        -0.293269
 H         2.550394         0.813031         2.064834
