19
Iteration:  2845charge 0 multiplicity 1
 C         0.088796         0.950330        -0.157350
 C         1.502135         0.255282        -0.180313
 C         2.456946        -0.067592        -1.252504
 C         3.369706        -0.430625         0.061297
 C         2.667336        -1.640217         0.575671
 O         1.285315        -1.084824         0.690510
 O         4.701754         0.119618         0.075008
 C         4.100715         1.423072         0.469982
 C         2.655609         0.795447         0.774688
 H        -0.052216         1.082196         0.904066
 H         0.119706         1.980628        -0.699386
 H        -0.727058         0.335293        -0.488761
 H         2.159776        -0.860338        -1.904832
 H         3.032444         0.786520        -1.743723
 H         2.752453        -2.514153        -0.071692
 H         2.808134        -2.018930         1.553827
 H         4.579706         1.886479         1.387925
 H         4.336172         2.233834        -0.402914
 H         2.390444         0.612119         1.816314
