19
Iteration:  3158charge 0 multiplicity 1
 C         0.210152         1.016689        -0.117753
 C         1.485983         0.220305        -0.028515
 C         2.358404        -0.008516        -1.235515
 C         3.305417        -0.419394         0.098426
 C         2.710726        -1.700104         0.597951
 O         1.260822        -1.087645         0.502033
 O         4.750174         0.165884         0.183636
 C         4.020071         1.429644         0.323125
 C         2.731878         0.684972         0.827100
 H        -0.252290         1.194836         0.826395
 H         0.353001         1.946077        -0.738926
 H        -0.429496         0.453853        -0.835901
 H         2.035545        -0.757894        -1.885087
 H         2.741476         0.751604        -1.866977
 H         2.882772        -2.608807         0.096291
 H         2.799625        -1.907611         1.651237
 H         4.469365         1.977832         1.108281
 H         4.011873         1.853163        -0.696006
 H         2.629664         0.670960         1.893363
