19
Iteration:   153
 C         0.067447         0.856385        -0.241636
 C         1.444970         0.267590        -0.044369
 C         2.471788         0.050191        -1.102486
 C         3.355863        -0.421382         0.094956
 C         2.698769        -1.680529         0.494148
 O         1.353141        -1.084408         0.535004
 O         4.689638         0.184449         0.055885
 C         4.046065         1.421939         0.479926
 C         2.704329         0.709300         0.877980
 H        -0.451132         1.085397         0.724659
 H         0.138644         1.855243        -0.847903
 H        -0.534406         0.125728        -0.849326
 H         2.298190        -0.615665        -1.888523
 H         2.975369         0.831500        -1.555633
 H         2.681516        -2.546027        -0.118117
 H         2.864726        -1.867760         1.541391
 H         4.607018         1.939843         1.320449
 H         3.911428         2.147303        -0.422635
 H         2.643687         0.511919         2.036270
