19
Iteration:   619
 C         0.001667         0.790895        -0.173217
 C         1.481452         0.348423        -0.082524
 C         2.523238        -0.037508        -1.137432
 C         3.342265        -0.362461         0.163178
 C         2.708202        -1.597984         0.518646
 O         1.306831        -1.122688         0.385741
 O         4.672216         0.165374         0.160502
 C         4.142384         1.405708         0.495683
 C         2.716553         0.779546         0.839718
 H        -0.196404         1.142237         0.858647
 H        -0.296972         1.693354        -0.867462
 H        -0.664922        -0.047436        -0.620491
 H         2.108597        -0.828633        -1.882396
 H         2.817576         0.760373        -1.791077
 H         2.801631        -2.418912        -0.247481
 H         2.824969        -1.969438         1.571693
 H         4.697369         1.931039         1.295707
 H         4.071796         2.074187        -0.324873
 H         2.475286         0.573971         1.876130
