19
Iteration:  1959charge 0 multiplicity 1
 C         0.073817         0.872170        -0.225535
 C         1.485597         0.305039         0.034569
 C         2.453644        -0.016411        -1.261333
 C         3.299758        -0.409614         0.045811
 C         2.668737        -1.666217         0.620955
 O         1.319078        -1.055868         0.484557
 O         4.709821         0.101903         0.113796
 C         4.110326         1.456911         0.512968
 C         2.725906         0.740106         0.829563
 H        -0.522258         0.854134         0.740760
 H         0.232817         1.949144        -0.649837
 H        -0.414820         0.202968        -0.941854
 H         2.061777        -0.787730        -2.011455
 H         2.876511         0.793691        -1.794884
 H         2.692320        -2.556336        -0.056878
 H         2.885122        -1.788362         1.682518
 H         4.484443         2.013304         1.375080
 H         4.235753         2.110149        -0.331828
 H         2.483440         0.598489         1.828654
