19
Iteration:   530
 C         0.225475         0.952524        -0.205481
 C         1.555249         0.273119        -0.061789
 C         2.524456        -0.061073        -1.207422
 C         3.359034        -0.426926         0.123587
 C         2.747092        -1.746837         0.597160
 O         1.268764        -1.163300         0.423383
 O         4.609119         0.226539         0.070104
 C         4.011337         1.518388         0.477801
 C         2.593980         0.703588         0.908684
 H        -0.260923         0.784076         0.857844
 H         0.423727         2.036360        -0.222029
 H        -0.471192         0.658729        -1.033466
 H         2.160506        -0.764425        -1.925370
 H         2.769055         0.811181        -1.779769
 H         2.730967        -2.709949        -0.005480
 H         3.092879        -1.835887         1.646851
 H         4.587848         2.011171         1.360920
 H         3.698053         2.193488        -0.288203
 H         2.311944         0.756212         1.993352
