19
Iteration:  4981
 C         0.225460         1.038835        -0.052938
 C         1.496127         0.298359        -0.093573
 C         2.369487        -0.079379        -1.206892
 C         3.341001        -0.448837         0.129603
 C         2.699739        -1.711875         0.563442
 O         1.332608        -1.118148         0.491233
 O         4.661653         0.077953         0.069895
 C         4.053722         1.461205         0.418799
 C         2.626524         0.812821         0.792487
 H        -0.180567         1.269591         0.922858
 H         0.298391         1.814084        -0.807589
 H        -0.479350         0.391611        -0.413486
 H         2.219324        -0.821481        -1.954131
 H         2.900358         0.875441        -1.574478
 H         2.799806        -2.634460        -0.023762
 H         2.918077        -2.224801         1.532593
 H         4.447471         1.954686         1.356890
 H         4.221066         2.137332        -0.436267
 H         2.488578         0.933931         1.900857
