19
Iteration:   730charge 0 multiplicity 1
 C         0.109684         0.872009        -0.206968
 C         1.496424         0.304211        -0.045858
 C         2.497854         0.037669        -1.192129
 C         3.392671        -0.456980         0.001145
 C         2.754939        -1.642824         0.588891
 O         1.312343        -1.061672         0.462996
 O         4.688837         0.184893         0.173437
 C         3.959594         1.364890         0.446792
 C         2.662755         0.692782         0.853991
 H        -0.311132         0.402766         0.717322
 H        -0.087287         2.020210        -0.130593
 H        -0.462047         0.513203        -1.140181
 H         2.277909        -0.749980        -1.935393
 H         2.977609         1.010268        -1.509175
 H         2.748437        -2.631904         0.071010
 H         2.832577        -1.692350         1.726182
 H         4.429843         1.878081         1.209136
 H         3.954091         2.051871        -0.343444
 H         2.426167         0.675569         1.895204
