19
Iteration:  1291charge 0 multiplicity 1
 C         0.108141         1.044358        -0.186328
 C         1.463486         0.291616        -0.038854
 C         2.544524        -0.105595        -1.183207
 C         3.376489        -0.424480         0.109751
 C         2.628255        -1.681396         0.591278
 O         1.343863        -1.174185         0.440382
 O         4.683061         0.155230         0.101501
 C         3.987270         1.488200         0.446257
 C         2.670832         0.700111         0.841037
 H        -0.189444         1.053663         0.939305
 H         0.307541         2.119189        -0.471496
 H        -0.642370         0.506967        -0.876450
 H         2.502724        -1.043447        -1.829148
 H         2.862764         0.896100        -1.644834
 H         2.986766        -2.468825        -0.068029
 H         2.879254        -1.924183         1.678601
 H         4.344572         2.076554         1.317354
 H         3.997516         2.081723        -0.498035
 H         2.459321         0.755942         1.916035
