19
Iteration:  3540
 C         0.109060         0.830491        -0.125724
 C         1.538667         0.306749        -0.071095
 C         2.519556         0.025729        -1.227212
 C         3.358338        -0.436676         0.055768
 C         2.569778        -1.585525         0.651245
 O         1.245023        -1.053280         0.553534
 O         4.676285         0.108959         0.041948
 C         4.110969         1.369366         0.480312
 C         2.757260         0.759294         0.766147
 H        -0.474644         0.984318         0.787241
 H         0.135017         1.813570        -0.722077
 H        -0.490189         0.021969        -0.620462
 H         2.350949        -0.801767        -2.046388
 H         2.816569         0.955280        -1.786259
 H         2.692249        -2.442707         0.017833
 H         2.778482        -1.835180         1.692417
 H         4.540002         1.883824         1.417301
 H         4.110678         2.208788        -0.443334
 H         2.525929         0.597897         1.917925
