19
Iteration:  3567
 C         0.011681         0.828179        -0.215467
 C         1.514636         0.403957        -0.026517
 C         2.444920         0.019242        -1.186347
 C         3.372013        -0.470360         0.072977
 C         2.702304        -1.635440         0.620705
 O         1.313092        -0.991476         0.518668
 O         4.675419         0.011205         0.069811
 C         4.124190         1.429632         0.453578
 C         2.736146         0.783148         0.849295
 H        -0.662572         0.825730         0.665993
 H        -0.034361         1.839381        -0.507708
 H        -0.377283         0.115373        -0.931031
 H         1.999901        -0.792682        -1.699914
 H         2.798989         0.780147        -1.852779
 H         2.707231        -2.558647        -0.084603
 H         2.943758        -1.970164         1.674668
 H         4.566605         1.997381         1.273085
 H         4.143661         2.025754        -0.541861
 H         2.520382         0.634674         1.867392
