19
Iteration:  1271
 C         0.225999         0.955499        -0.113761
 C         1.536363         0.229180        -0.110762
 C         2.535300        -0.026031        -1.213730
 C         3.364406        -0.463947         0.064375
 C         2.712560        -1.704829         0.625722
 O         1.271081        -1.103556         0.453038
 O         4.647552         0.146143         0.174256
 C         3.947363         1.473752         0.374371
 C         2.584832         0.786249         0.850141
 H        -0.279574         0.806203         0.872190
 H         0.560362         2.017520        -0.241838
 H        -0.374617         0.628643        -0.995716
 H         2.057964        -0.789893        -1.876006
 H         2.950076         0.866866        -1.674139
 H         2.908130        -2.512490        -0.112182
 H         3.048834        -1.777919         1.679676
 H         4.537622         1.895526         1.277835
 H         3.939202         2.013756        -0.595763
 H         2.356383         0.678602         2.007747
