19
Iteration:    29charge 0 multiplicity 1
 C         0.094826         0.874385        -0.270030
 C         1.485968         0.255333        -0.065541
 C         2.469982         0.009179        -1.148303
 C         3.353616        -0.371341         0.061249
 C         2.684041        -1.659515         0.437545
 O         1.378057        -1.117101         0.704064
 O         4.648711         0.126443         0.078236
 C         4.062620         1.397035         0.513188
 C         2.662980         0.813948         0.811176
 H        -0.562975         0.484785         0.611332
 H         0.085915         1.954608        -0.455254
 H        -0.476140         0.455986        -1.136057
 H         2.326772        -0.614519        -2.055632
 H         2.709731         1.013217        -1.568341
 H         2.719839        -2.515823        -0.274041
 H         3.161168        -2.059306         1.366742
 H         4.587524         1.660912         1.420427
 H         4.151279         2.218205        -0.341524
 H         2.390517         0.932479         1.947040
