19
Iteration:  2670
 C         0.016321         0.831053        -0.312186
 C         1.475883         0.372120        -0.069396
 C         2.387998        -0.044016        -1.191780
 C         3.325021        -0.379375        -0.023479
 C         2.623955        -1.647228         0.584764
 O         1.347129        -1.031222         0.696925
 O         4.716597         0.142524         0.029684
 C         4.182056         1.363946         0.523510
 C         2.739716         0.763706         0.905824
 H        -0.546996         1.208974         0.551130
 H         0.142367         1.714838        -1.051841
 H        -0.468516        -0.069690        -0.803438
 H         2.130624        -0.922069        -1.843085
 H         3.021610         0.685755        -1.737974
 H         2.553183        -2.372235        -0.216817
 H         2.900251        -1.959114         1.559592
 H         4.764868         1.690045         1.360003
 H         4.080805         2.019352        -0.363002
 H         2.680480         0.617103         2.015020
