19
Iteration:     7charge 0 multiplicity 1
 C         0.138431         0.864693        -0.148684
 C         1.491913         0.237961        -0.050463
 C         2.459649         0.025409        -1.191140
 C         3.374467        -0.372385         0.048209
 C         2.729911        -1.693571         0.551304
 O         1.338603        -1.061569         0.527537
 O         4.638868         0.148631         0.096500
 C         4.007545         1.463384         0.495959
 C         2.629578         0.740009         0.820225
 H        -0.496913         0.916949         0.813755
 H         0.378332         1.842457        -0.603221
 H        -0.521889         0.410827        -0.930452
 H         2.280488        -0.771539        -1.924635
 H         2.975119         0.818779        -1.756170
 H         2.724927        -2.522911        -0.178878
 H         2.951251        -2.182001         1.526866
 H         4.519727         1.863456         1.375750
 H         4.290987         2.078490        -0.476067
 H         2.566021         0.480139         1.962041
