19
Iteration:  4437
 C         0.084833         0.901933        -0.220112
 C         1.428840         0.278130        -0.086490
 C         2.426738         0.012466        -1.186952
 C         3.342824        -0.459068         0.020784
 C         2.655215        -1.694492         0.573643
 O         1.330292        -1.049260         0.637012
 O         4.727289         0.095042         0.056918
 C         4.194057         1.362356         0.459627
 C         2.652969         0.913217         0.849475
 H        -0.386056         0.830541         0.737416
 H         0.003096         1.933735        -0.529224
 H        -0.372589         0.244741        -0.867204
 H         2.040923        -0.746888        -1.983937
 H         2.621801         0.950084        -1.599472
 H         2.528957        -2.590298         0.005089
 H         3.061483        -2.078548         1.498601
 H         4.758945         1.744001         1.299835
 H         4.121802         2.081182        -0.418610
 H         2.566452         0.636955         1.932583
