19
Iteration:   871
 C         0.145114         0.849346        -0.130224
 C         1.539749         0.276817        -0.113236
 C         2.481035        -0.004480        -1.226800
 C         3.431928        -0.414533        -0.021940
 C         2.660509        -1.674096         0.558899
 O         1.327161        -1.066706         0.505041
 O         4.705945         0.131942         0.212459
 C         3.914964         1.459630         0.478528
 C         2.627290         0.759358         0.796405
 H        -0.229688         0.701293         0.802792
 H         0.130463         1.951697        -0.372874
 H        -0.502903         0.396029        -0.892858
 H         2.277699        -0.830309        -1.867711
 H         2.787007         1.004234        -1.679533
 H         2.652488        -2.635878        -0.001612
 H         2.985454        -1.899901         1.642800
 H         4.396771         2.060978         1.367378
 H         4.184212         2.207526        -0.383471
 H         2.471716         0.485773         1.900417
