19
Iteration:  2244charge 0 multiplicity 1
 C         0.108452         0.882062        -0.282102
 C         1.490365         0.346880         0.054798
 C         2.409720        -0.096568        -1.210194
 C         3.373987        -0.415553         0.088975
 C         2.689903        -1.665163         0.540155
 O         1.242949        -1.077077         0.547083
 O         4.691605         0.098100         0.116004
 C         4.115077         1.475828         0.468242
 C         2.769146         0.837431         0.848537
 H        -0.437642         0.611558         0.623942
 H        -0.043681         1.899223        -0.438447
 H        -0.295041         0.322573        -1.150611
 H         2.053803        -0.888322        -1.842769
 H         2.780228         0.814123        -1.854096
 H         2.508742        -2.498054        -0.086442
 H         2.986145        -2.040449         1.519073
 H         4.743338         1.829954         1.205075
 H         3.942150         2.129126        -0.464023
 H         2.619894         0.618512         1.879960
