19
Iteration:  4923charge 0 multiplicity 1
 C         0.198446         0.976857        -0.164509
 C         1.455168         0.330339        -0.061374
 C         2.426455        -0.042007        -1.148656
 C         3.366056        -0.412055         0.057008
 C         2.592645        -1.731008         0.561189
 O         1.338528        -1.106246         0.594610
 O         4.681774         0.140990         0.035684
 C         4.065980         1.411444         0.417088
 C         2.645278         0.738070         0.829518
 H        -0.250927         0.926947         0.840196
 H         0.458529         2.049412        -0.242937
 H        -0.285996         0.580108        -1.067445
 H         2.053062        -0.876687        -1.826752
 H         2.856749         0.704105        -1.784755
 H         2.591971        -2.498731        -0.235292
 H         3.016565        -1.925367         1.544795
 H         4.546132         1.845390         1.319350
 H         4.247760         2.115685        -0.351356
 H         2.725107         0.771074         1.932667
