19
Iteration:  1025
 C         0.093045         0.845651        -0.190029
 C         1.569106         0.300842        -0.056436
 C         2.445137        -0.026467        -1.215734
 C         3.377034        -0.411734        -0.017386
 C         2.639580        -1.618265         0.544540
 O         1.295755        -1.119399         0.496046
 O         4.730461         0.134252         0.205405
 C         3.992313         1.521543         0.492817
 C         2.717909         0.688766         0.849123
 H        -0.339288         1.065837         0.756957
 H         0.231205         1.787445        -0.678611
 H        -0.586234         0.188381        -0.680956
 H         2.175461        -0.762151        -2.021049
 H         2.765811         0.882814        -1.664951
 H         2.695708        -2.526016         0.042139
 H         2.851720        -1.715844         1.570871
 H         4.537043         2.034992         1.234755
 H         3.930317         2.084343        -0.467353
 H         2.601238         0.625942         1.900597
