19
Iteration:  1638charge 0 multiplicity 1
 C        -0.002200         0.855642        -0.238500
 C         1.500433         0.312361        -0.089131
 C         2.473432        -0.000046        -1.214422
 C         3.364648        -0.417139         0.099674
 C         2.644707        -1.662327         0.554695
 O         1.333628        -1.074444         0.549543
 O         4.701094         0.064215         0.145305
 C         4.110642         1.450637         0.510160
 C         2.707957         0.801617         0.778267
 H        -0.233646         1.048198         0.810877
 H         0.032776         1.798002        -0.695398
 H        -0.573106         0.133325        -0.841300
 H         2.380428        -0.803888        -2.011990
 H         2.883881         0.854687        -1.558013
 H         2.840235        -2.541020        -0.101867
 H         2.791319        -1.807151         1.575820
 H         4.569003         1.801343         1.398824
 H         4.036270         2.275220        -0.254655
 H         2.411953         0.823646         1.848192
