19
Iteration:   242
 C         0.230690         0.998169        -0.070606
 C         1.481972         0.173498        -0.029725
 C         2.554874        -0.014085        -1.178144
 C         3.380661        -0.350127         0.141101
 C         2.680145        -1.713422         0.509286
 O         1.321711        -1.234552         0.434561
 O         4.603950         0.164497         0.131115
 C         3.968300         1.490387         0.375131
 C         2.589221         0.826653         0.830340
 H        -0.171715         0.919000         0.912363
 H         0.386929         2.106510        -0.378849
 H        -0.508741         0.576136        -0.824329
 H         2.453574        -0.866638        -1.769944
 H         2.903446         0.789416        -1.734107
 H         2.759424        -2.526430        -0.203956
 H         2.865589        -2.118713         1.491379
 H         4.560710         2.016588         1.193749
 H         3.990303         2.150873        -0.524384
 H         2.603079         0.647205         1.954131
