19
Iteration:  2333
 C         0.177474         0.914578        -0.166965
 C         1.497114         0.310864        -0.078664
 C         2.523486         0.019051        -1.189691
 C         3.343526        -0.403832         0.129162
 C         2.640589        -1.666001         0.617066
 O         1.290459        -1.118068         0.553878
 O         4.648962         0.118039         0.115330
 C         4.038417         1.429508         0.416327
 C         2.655921         0.707068         0.727499
 H        -0.084831         1.292895         0.790801
 H         0.153102         1.728180        -0.885630
 H        -0.629069         0.179795        -0.434526
 H         2.246182        -0.681607        -2.022807
 H         3.007963         0.894849        -1.683614
 H         2.694983        -2.501316        -0.050341
 H         3.004233        -1.925935         1.652748
 H         4.645202         1.833796         1.239087
 H         4.063013         2.207435        -0.488068
 H         2.634661         0.743981         1.816497
