19
Iteration:  2645charge 0 multiplicity 1
 C         0.096487         0.881428        -0.239447
 C         1.500046         0.265409        -0.029077
 C         2.337060        -0.099335        -1.229403
 C         3.406439        -0.394571        -0.062044
 C         2.684341        -1.616227         0.644021
 O         1.287928        -0.979107         0.618121
 O         4.724591         0.094134         0.114339
 C         4.106246         1.452484         0.511994
 C         2.694159         0.738318         0.744562
 H        -0.421331         0.846718         0.743441
 H         0.192948         1.885035        -0.505514
 H        -0.453953         0.234909        -0.995953
 H         2.091561        -0.832985        -2.026715
 H         2.736454         0.793668        -1.610504
 H         2.574989        -2.473408         0.020840
 H         2.949421        -1.802202         1.676526
 H         4.579167         1.694017         1.557246
 H         4.244877         2.149964        -0.355004
 H         2.697631         0.447763         1.785726
