19
Iteration:  2436
 C         0.191482         1.049565        -0.115922
 C         1.545119         0.316043        -0.131478
 C         2.446638        -0.107714        -1.242507
 C         3.408701        -0.489257         0.040337
 C         2.676701        -1.717496         0.659563
 O         1.272249        -1.122059         0.535417
 O         4.665040         0.233791         0.145812
 C         3.950105         1.475920         0.383008
 C         2.673205         0.652632         0.821549
 H        -0.488889         1.097484         0.814194
 H         0.493005         2.145479        -0.276074
 H        -0.370122         0.955258        -1.056911
 H         2.163060        -1.025907        -1.665394
 H         3.094370         0.454507        -1.980327
 H         2.861109        -2.676429         0.088085
 H         2.854402        -1.863141         1.724394
 H         4.400763         2.107494         1.261268
 H         3.965739         1.868305        -0.597853
 H         2.612052         0.502463         1.910782
