19
Iteration:  1883
 C         0.219610         0.996488        -0.140767
 C         1.530343         0.255796        -0.080576
 C         2.441634        -0.128057        -1.237076
 C         3.387281        -0.428107         0.023442
 C         2.678134        -1.646537         0.556021
 O         1.258793        -1.121219         0.504456
 O         4.678084         0.172137         0.171927
 C         3.953662         1.514534         0.467639
 C         2.684751         0.726147         0.869082
 H        -0.411388         1.106714         0.750952
 H         0.597182         1.954434        -0.555722
 H        -0.290805         0.459486        -0.915619
 H         1.972228        -0.957352        -1.788846
 H         2.945243         0.533189        -1.927164
 H         2.795589        -2.547871        -0.123694
 H         2.809012        -2.032639         1.577912
 H         4.642223         1.959210         1.297298
 H         4.022330         2.247866        -0.374514
 H         2.469124         0.490245         1.843513
