19
Iteration:  3084
 C         0.109349         0.908812        -0.221968
 C         1.479524         0.315746         0.013890
 C         2.389386        -0.031883        -1.207676
 C         3.351667        -0.358377         0.030231
 C         2.697946        -1.587463         0.649380
 O         1.265393        -1.090835         0.526542
 O         4.631104         0.094933         0.025518
 C         4.140202         1.391759         0.483455
 C         2.771220         0.693290         0.833899
 H        -0.550984         1.016702         0.616440
 H         0.355052         1.898472        -0.690792
 H        -0.323789         0.481066        -1.062872
 H         2.110622        -0.917433        -1.849513
 H         2.795883         0.728454        -1.840848
 H         2.727134        -2.690960         0.316524
 H         2.966656        -1.554795         1.709494
 H         4.741670         1.726254         1.470572
 H         4.194670         2.213923        -0.276560
 H         2.651920         0.558841         1.894112
