19
Iteration:    75
 C         0.176277         0.906721        -0.134409
 C         1.519469         0.336809        -0.065906
 C         2.474855        -0.014108        -1.170212
 C         3.369098        -0.427739         0.051494
 C         2.667543        -1.648874         0.623472
 O         1.346427        -1.178723         0.435940
 O         4.666871         0.189592         0.079182
 C         4.002223         1.429462         0.446853
 C         2.632240         0.738772         0.857571
 H        -0.269528         0.759763         0.923562
 H         0.269702         1.964797        -0.415358
 H        -0.541835         0.439187        -0.851197
 H         2.197461        -0.705366        -1.906089
 H         2.838283         0.859922        -1.681769
 H         2.760443        -2.538419         0.029008
 H         2.857425        -1.961199         1.654285
 H         4.481327         1.931078         1.266597
 H         3.911413         2.149913        -0.488837
 H         2.473006         0.582544         2.013187
