19
Iteration:  2739charge 0 multiplicity 1
 C         0.247760         1.010981        -0.056128
 C         1.515028         0.279017        -0.064781
 C         2.396431        -0.187964        -1.317409
 C         3.389235        -0.480082         0.037715
 C         2.696636        -1.628113         0.631389
 O         1.311340        -1.078923         0.496875
 O         4.731491         0.146614         0.211882
 C         3.933429         1.450674         0.388298
 C         2.614005         0.780404         0.732590
 H         0.001708         1.216924         1.031234
 H         0.452469         2.072991        -0.427518
 H        -0.678440         0.716467        -0.498141
 H         2.072635        -1.114520        -1.807737
 H         2.929944         0.534289        -2.017059
 H         2.640134        -2.500000        -0.006200
 H         2.982338        -1.731262         1.698504
 H         4.273854         1.890902         1.235771
 H         3.974150         2.020095        -0.471574
 H         2.446176         0.619813         1.797154
