19
Iteration:  3692
 C         0.012772         0.843705        -0.211994
 C         1.464728         0.389469        -0.025179
 C         2.423172        -0.018823        -1.262703
 C         3.382178        -0.405432        -0.010280
 C         2.686336        -1.605275         0.540991
 O         1.377255        -0.990418         0.645559
 O         4.651931         0.023828         0.178272
 C         4.099066         1.391459         0.488852
 C         2.732963         0.719898         0.783202
 H        -0.375618         1.014423         0.813374
 H         0.024067         1.843546        -0.832068
 H        -0.662617         0.163956        -0.792966
 H         2.014554        -0.720717        -2.106990
 H         2.897605         0.932111        -1.730389
 H         2.692237        -2.385074        -0.251586
 H         2.974328        -2.038593         1.519345
 H         4.613700         1.964304         1.295548
 H         4.340613         1.931153        -0.541854
 H         2.689097         0.491304         1.916753
