19
Iteration:  2662charge 0 multiplicity 1
 C         0.051838         0.852645        -0.289144
 C         1.428910         0.350308        -0.087952
 C         2.423075        -0.010224        -1.217929
 C         3.332808        -0.428769        -0.012813
 C         2.638406        -1.606126         0.553947
 O         1.296849        -1.027844         0.720889
 O         4.776653         0.123635         0.052908
 C         4.132175         1.396661         0.546140
 C         2.811479         0.703013         0.847415
 H        -0.625947         0.985416         0.567353
 H        -0.115560         1.710285        -1.038231
 H        -0.508074         0.162161        -0.890608
 H         2.025836        -0.918241        -1.645162
 H         2.539840         0.736412        -2.100778
 H         2.601736        -2.614537         0.014641
 H         3.019546        -1.838095         1.607990
 H         4.616124         1.739798         1.412330
 H         4.123480         2.156600        -0.221082
 H         2.619300         0.771509         1.938685
