19
Iteration:   314charge 0 multiplicity 1
 C         0.006511         0.860432        -0.228643
 C         1.448620         0.307855        -0.100882
 C         2.484983         0.005900        -1.167228
 C         3.334221        -0.357366         0.063275
 C         2.721576        -1.698183         0.549650
 O         1.394021        -1.105520         0.573686
 O         4.697548         0.151933         0.032776
 C         4.109118         1.388203         0.595516
 C         2.627983         0.784539         0.790763
 H        -0.351689         1.124458         0.791745
 H         0.008648         1.720581        -0.845347
 H        -0.642966         0.150234        -0.736764
 H         2.366672        -0.877395        -2.016722
 H         2.664341         1.017214        -1.685178
 H         2.870687        -2.501711        -0.227764
 H         2.910081        -2.007579         1.629628
 H         4.381272         1.644761         1.618687
 H         4.414178         2.270648        -0.034408
 H         2.409257         0.730276         1.867666
