19
Iteration:  1547
 C         0.231280         0.886210        -0.192456
 C         1.475738         0.227560        -0.065590
 C         2.501330        -0.039467        -1.215501
 C         3.383476        -0.418289         0.078549
 C         2.660538        -1.639202         0.569600
 O         1.263847        -1.065805         0.508876
 O         4.683477         0.198817         0.160536
 C         3.994914         1.411007         0.438231
 C         2.663926         0.703197         0.817097
 H        -0.183654         1.145254         0.836054
 H         0.385574         2.018407        -0.439759
 H        -0.582997         0.523485        -0.896201
 H         2.251652        -0.856723        -1.807407
 H         2.938581         0.896162        -1.715536
 H         2.752127        -2.541991        -0.043639
 H         2.928078        -1.796030         1.604344
 H         4.515990         1.966396         1.241060
 H         3.866461         2.064623        -0.451931
 H         2.325002         0.388198         1.899464
