19
Iteration:  1952
 C         0.095659         0.825858        -0.238632
 C         1.491271         0.334696         0.028225
 C         2.402862        -0.030612        -1.237398
 C         3.381911        -0.401781         0.081979
 C         2.607421        -1.604606         0.578892
 O         1.331401        -1.079457         0.465681
 O         4.702922         0.097577         0.135126
 C         4.133513         1.439484         0.494336
 C         2.679754         0.777628         0.824437
 H        -0.518226         0.774338         0.650283
 H         0.323083         1.793053        -0.503121
 H        -0.380387         0.180902        -0.977109
 H         1.847673        -0.690766        -1.909713
 H         2.823893         0.764151        -1.867160
 H         2.550432        -2.555936         0.067958
 H         3.015766        -1.809579         1.611606
 H         4.762683         1.876994         1.428632
 H         4.146942         2.229962        -0.333707
 H         2.659751         0.570175         1.933442
