19
Iteration:  2176
 C         0.219364         1.018608        -0.130404
 C         1.540915         0.241120        -0.075822
 C         2.410333        -0.118112        -1.233833
 C         3.417606        -0.447875        -0.008159
 C         2.670496        -1.662122         0.617486
 O         1.297516        -1.127802         0.520512
 O         4.659767         0.220910         0.164688
 C         3.959340         1.430019         0.494104
 C         2.666545         0.766306         0.762658
 H        -0.084309         1.428332         0.840530
 H         0.243182         1.797552        -0.884527
 H        -0.473649         0.379135        -0.563207
 H         2.195655        -1.023669        -1.891761
 H         2.865581         0.700055        -1.718488
 H         2.744487        -2.444526        -0.148081
 H         2.844237        -2.118320         1.542168
 H         4.305133         1.811247         1.434121
 H         4.144111         2.083164        -0.454340
 H         2.571293         0.673228         1.865910
