19
Iteration:  2469charge 0 multiplicity 1
 C         0.179352         0.972409        -0.133333
 C         1.449960         0.239508        -0.058371
 C         2.501152        -0.100959        -1.201342
 C         3.389200        -0.405057         0.014292
 C         2.680604        -1.698013         0.530621
 O         1.293124        -1.103015         0.591665
 O         4.673398         0.092084         0.214116
 C         3.994257         1.445913         0.355035
 C         2.629712         0.863524         0.787250
 H        -0.356917         1.152044         0.857903
 H         0.646845         1.919560        -0.455895
 H        -0.526091         0.588760        -0.885333
 H         2.327569        -0.956965        -1.793617
 H         2.935768         0.735167        -1.834346
 H         2.744290        -2.586201        -0.147414
 H         2.995073        -1.949108         1.525536
 H         4.503396         2.146522         1.106013
 H         4.204005         1.914862        -0.567073
 H         2.454424         0.907934         1.874009
