19
Iteration:  2178
 C         0.208201         1.020885        -0.137959
 C         1.546368         0.224267        -0.081942
 C         2.413847        -0.104978        -1.248549
 C         3.438469        -0.434068         0.004394
 C         2.655859        -1.650952         0.618826
 O         1.308153        -1.123200         0.535463
 O         4.649431         0.207027         0.161107
 C         3.968420         1.415541         0.481270
 C         2.652958         0.764246         0.768219
 H        -0.092204         1.410085         0.871977
 H         0.239341         1.819999        -0.840291
 H        -0.589778         0.331371        -0.541182
 H         2.281628        -0.959435        -1.935269
 H         2.958208         0.777324        -1.709450
 H         2.711580        -2.448367        -0.114287
 H         2.905598        -2.117297         1.571217
 H         4.269164         1.762969         1.387495
 H         4.128502         2.130433        -0.408489
 H         2.544574         0.643045         1.819563
