19
Iteration:  4819
 C         0.258280         1.092066        -0.100135
 C         1.492553         0.325814        -0.058035
 C         2.424771        -0.080055        -1.163518
 C         3.322036        -0.442868         0.049724
 C         2.643483        -1.749280         0.509599
 O         1.297574        -1.185345         0.570183
 O         4.674312         0.149368         0.089773
 C         4.025485         1.493468         0.404328
 C         2.673951         0.715021         0.809088
 H        -0.009463         1.314015         0.967153
 H         0.547314         1.911853        -0.815985
 H        -0.681210         0.543110        -0.508862
 H         2.221413        -0.947953        -1.803430
 H         2.832034         0.708161        -1.914374
 H         2.920646        -2.570561        -0.110688
 H         2.986057        -1.987216         1.525492
 H         4.376365         1.922855         1.359703
 H         3.932684         2.242479        -0.463445
 H         2.522846         0.694378         1.889329
