19
Iteration:  1209
 C         0.154506         0.813520        -0.285112
 C         1.489292         0.315983        -0.039783
 C         2.512481         0.009136        -1.148310
 C         3.289912        -0.394786         0.080083
 C         2.596466        -1.619800         0.585272
 O         1.357952        -1.130487         0.565128
 O         4.649734         0.140902         0.042402
 C         4.090542         1.420251         0.503224
 C         2.680227         0.795613         0.852547
 H        -0.508610         0.925706         0.562735
 H         0.257697         1.830560        -0.703617
 H        -0.502439         0.203624        -0.935040
 H         2.213014        -0.650591        -1.966076
 H         2.823744         0.877493        -1.644697
 H         2.913068        -2.360852        -0.256019
 H         2.890646        -1.968307         1.573915
 H         4.556417         1.674232         1.516146
 H         4.193524         2.167878        -0.272553
 H         2.566679         0.564776         1.927947
