19
Iteration:  4893
 C         0.046605         0.890652        -0.227479
 C         1.442423         0.330442        -0.012156
 C         2.440615         0.030428        -1.139669
 C         3.345072        -0.428226         0.019727
 C         2.657819        -1.657285         0.547812
 O         1.331004        -1.010403         0.598419
 O         4.713262         0.054630         0.061387
 C         4.088094         1.375538         0.416569
 C         2.724767         0.757299         0.874557
 H        -0.460956         0.655874         0.708416
 H         0.185689         1.951823        -0.427574
 H        -0.480716         0.486023        -0.989922
 H         2.039080        -0.583665        -1.875345
 H         2.881666         0.766096        -1.813548
 H         2.597898        -2.561128        -0.112682
 H         3.046015        -2.032470         1.508587
 H         4.721451         1.795964         1.252883
 H         4.255380         2.027624        -0.435299
 H         2.848276         0.711048         1.974425
