19
Iteration:  1985
 C         0.160847         0.977979        -0.202911
 C         1.486060         0.260106        -0.069386
 C         2.571162        -0.062250        -1.218433
 C         3.354326        -0.426301         0.074601
 C         2.639953        -1.636292         0.566067
 O         1.332191        -1.117401         0.575661
 O         4.708263         0.160669         0.091625
 C         3.984185         1.416063         0.467271
 C         2.600331         0.690131         0.812527
 H         0.088459         1.261468         0.848187
 H         0.303858         1.893885        -0.686656
 H        -0.748321         0.504118        -0.614729
 H         2.180971        -0.720561        -1.983677
 H         2.983512         0.907210        -1.615441
 H         2.581102        -2.457872        -0.135644
 H         3.036328        -1.836105         1.601713
 H         4.494289         1.975895         1.449362
 H         3.996022         2.138283        -0.454988
 H         2.164768         0.512385         1.854392
