19
Iteration:   951
 C         0.130426         0.972132        -0.225944
 C         1.516035         0.215397        -0.104288
 C         2.462062        -0.065189        -1.168933
 C         3.390532        -0.454472        -0.023840
 C         2.705945        -1.684597         0.513191
 O         1.323475        -1.043117         0.573202
 O         4.717715         0.198444         0.123979
 C         3.933037         1.531463         0.582220
 C         2.690111         0.613908         0.840394
 H        -0.520166         1.040937         0.703810
 H         0.217762         1.930061        -0.673979
 H        -0.441271         0.323471        -0.890410
 H         2.224794        -0.805934        -1.989459
 H         2.886671         0.816948        -1.587674
 H         2.503482        -2.707255         0.031232
 H         3.130909        -1.756407         1.607368
 H         4.446808         2.040567         1.308377
 H         3.755751         2.119442        -0.352889
 H         2.491757         0.480040         1.833425
