19
Iteration:  4360charge 0 multiplicity 1
 C         0.198243         1.048692        -0.088024
 C         1.437555         0.181240        -0.120091
 C         2.507737        -0.112295        -1.232125
 C         3.333406        -0.399306         0.049057
 C         2.689863        -1.705945         0.580520
 O         1.293583        -1.115470         0.568093
 O         4.629536         0.130823         0.116546
 C         4.065788         1.480934         0.367811
 C         2.714088         0.714781         0.864918
 H        -0.033095         1.251522         0.971093
 H         0.552137         2.039568        -0.434933
 H        -0.613202         0.659823        -0.622210
 H         2.476532        -0.855377        -2.105843
 H         2.659931         0.865361        -1.766977
 H         2.569439        -2.532213        -0.080036
 H         2.820376        -1.725305         1.640987
 H         4.492974         2.242004         1.013651
 H         3.828302         2.043105        -0.517816
 H         2.404866         0.768387         1.980565
