19
Iteration:  3350
 C         0.216487         1.106900        -0.147447
 C         1.488910         0.289547        -0.012558
 C         2.435690        -0.103902        -1.132616
 C         3.371866        -0.473029         0.124768
 C         2.700982        -1.685671         0.558682
 O         1.296252        -1.164629         0.484161
 O         4.637909         0.209444         0.081974
 C         4.010218         1.449449         0.356976
 C         2.681048         0.636443         0.860585
 H        -0.313408         1.510631         0.743456
 H         0.634608         1.854023        -0.783700
 H        -0.585909         0.584095        -0.664474
 H         2.242780        -0.914958        -1.848158
 H         2.934492         0.704707        -1.789042
 H         2.736301        -2.579962        -0.010892
 H         3.044516        -1.814632         1.543412
 H         4.439459         2.044765         1.211964
 H         3.872548         2.122019        -0.589845
 H         2.471853         0.639876         1.926551
