19
Iteration:  1081charge 0 multiplicity 1
 C         0.152995         0.878481        -0.283457
 C         1.488570         0.297169        -0.029204
 C         2.450253         0.005207        -1.184369
 C         3.373289        -0.347948         0.070676
 C         2.767001        -1.721896         0.581856
 O         1.305870        -1.106974         0.567314
 O         4.626751         0.170178         0.061349
 C         4.070434         1.397379         0.489816
 C         2.609661         0.755990         0.863602
 H        -0.556908         0.759680         0.537039
 H         0.152201         1.912487        -0.388771
 H        -0.223452         0.588977        -1.226192
 H         2.284906        -0.882916        -1.847694
 H         2.793617         0.921873        -1.638306
 H         2.859558        -2.572755        -0.018135
 H         3.044207        -1.990122         1.599856
 H         4.478318         1.795172         1.336379
 H         4.195760         2.144106        -0.307299
 H         2.390046         0.650166         1.885170
