19
Iteration:  4768
 C         0.123293         0.970419        -0.145891
 C         1.487344         0.335475        -0.039927
 C         2.470615        -0.041870        -1.206652
 C         3.353093        -0.447823         0.049890
 C         2.636787        -1.667924         0.602893
 O         1.358377        -1.101214         0.557498
 O         4.616676         0.094822         0.034626
 C         4.121284         1.416241         0.425853
 C         2.688804         0.802641         0.858452
 H        -0.483680         0.827099         0.706964
 H         0.219646         1.985693        -0.432717
 H        -0.434393         0.442091        -0.961738
 H         2.076470        -0.765559        -1.936505
 H         2.876399         0.884735        -1.541931
 H         2.578230        -2.499327        -0.159443
 H         3.086436        -2.011031         1.544692
 H         4.574003         1.623609         1.317719
 H         4.020974         2.135039        -0.354548
 H         2.599835         0.584334         1.904164
