19
Iteration:  4438
 C         0.078086         0.903482        -0.215727
 C         1.432512         0.281095        -0.089572
 C         2.429513         0.006594        -1.195889
 C         3.341446        -0.450030         0.019354
 C         2.664058        -1.701882         0.577952
 O         1.332982        -1.050210         0.634662
 O         4.722632         0.089578         0.057426
 C         4.202166         1.369028         0.463315
 C         2.657313         0.922028         0.855357
 H        -0.394716         0.825256         0.734624
 H        -0.004844         1.921824        -0.561755
 H        -0.433881         0.234971        -0.876511
 H         1.981139        -0.720423        -1.955092
 H         2.651870         0.934149        -1.608767
 H         2.512123        -2.568019         0.013112
 H         3.029856        -2.112102         1.473105
 H         4.727444         1.760350         1.307780
 H         4.100444         2.015659        -0.397267
 H         2.572831         0.627697         1.917705
