19
Iteration:   407
 C         0.227653         0.967100        -0.188135
 C         1.500425         0.210378        -0.002182
 C         2.446123        -0.167082        -1.221820
 C         3.309884        -0.396315         0.054713
 C         2.785143        -1.718327         0.563476
 O         1.323845        -1.104976         0.428204
 O         4.710049         0.221900         0.127881
 C         3.919620         1.484556         0.510554
 C         2.627686         0.771415         0.842341
 H        -0.266834         1.053078         0.861050
 H         0.584002         2.002811        -0.480239
 H        -0.411519         0.628070        -1.016734
 H         1.846931        -0.878134        -1.719611
 H         2.651019         0.745275        -1.829605
 H         2.948990        -2.567281        -0.223356
 H         3.012912        -1.997270         1.634990
 H         4.335845         1.955044         1.492377
 H         3.895749         2.232391        -0.238386
 H         2.353626         0.642402         2.007484
