19
Iteration:  2622charge 0 multiplicity 1
 C         0.124943         1.009773        -0.141080
 C         1.540404         0.287954        -0.113899
 C         2.517173        -0.059897        -1.242898
 C         3.361793        -0.373980         0.125683
 C         2.676732        -1.685043         0.653220
 O         1.307036        -1.143301         0.544682
 O         4.631571         0.069943         0.096728
 C         4.042230         1.443001         0.364804
 C         2.630801         0.797111         0.792932
 H        -0.240218         0.756321         0.872758
 H         0.301115         2.048998        -0.114101
 H        -0.571570         0.671864        -0.918686
 H         2.330026        -0.958605        -1.805586
 H         2.821231         0.793230        -1.836273
 H         2.790427        -2.605106         0.096625
 H         3.063069        -1.698256         1.678226
 H         4.628888         1.837428         1.321022
 H         4.004576         2.020691        -0.589758
 H         2.411695         0.786323         1.861469
