19
Iteration:  1468charge 0 multiplicity 1
 C         0.117411         0.951937        -0.277285
 C         1.509019         0.309680        -0.031339
 C         2.457831         0.029487        -1.221700
 C         3.370792        -0.468781         0.042032
 C         2.697214        -1.680136         0.626758
 O         1.297671        -1.082665         0.536230
 O         4.699831         0.191267         0.111041
 C         4.024545         1.387471         0.454791
 C         2.691531         0.670635         0.911876
 H        -0.392619         0.954094         0.720047
 H         0.047743         1.927735        -0.900819
 H        -0.330869         0.106603        -0.848584
 H         2.186940        -0.664434        -2.064152
 H         2.956684         0.797537        -1.716358
 H         2.819346        -2.490132        -0.047411
 H         2.814955        -1.996120         1.639429
 H         4.531158         1.983543         1.286291
 H         3.983790         2.048635        -0.341908
 H         2.293893         0.702286         1.955280
