19
Iteration:  4330charge 0 multiplicity 1
 C         0.126671         0.954360        -0.112928
 C         1.488943         0.387344        -0.029506
 C         2.419662        -0.091188        -1.254302
 C         3.347095        -0.466454         0.020598
 C         2.679682        -1.668466         0.581301
 O         1.326022        -1.055769         0.550543
 O         4.715046         0.055833         0.100072
 C         4.042659         1.479359         0.440734
 C         2.756941         0.760274         0.818382
 H        -0.435709         1.115342         0.840961
 H         0.110503         1.737190        -0.942212
 H        -0.440362         0.071491        -0.611884
 H         2.053150        -0.850515        -1.967003
 H         2.653192         0.776649        -1.763111
 H         2.629737        -2.680664         0.038800
 H         2.866168        -1.922320         1.652027
 H         4.308213         1.961009         1.370803
 H         4.037806         2.184197        -0.369564
 H         2.516502         0.853999         1.866705
