19
Iteration:  2428
 C         0.169138         1.083174        -0.144220
 C         1.538944         0.265759        -0.068104
 C         2.572009        -0.106661        -1.219025
 C         3.324512        -0.524385        -0.010227
 C         2.683172        -1.666557         0.676905
 O         1.287892        -1.119560         0.530716
 O         4.692391         0.195341         0.107869
 C         3.925617         1.464022         0.400953
 C         2.688966         0.683083         0.828781
 H        -0.476233         0.953405         0.785748
 H         0.393027         2.122826        -0.256401
 H        -0.475617         0.817210        -1.059682
 H         2.159476        -0.915286        -1.836965
 H         3.059177         0.673107        -1.903053
 H         2.623730        -2.719942         0.235444
 H         2.963579        -1.780624         1.719564
 H         4.470702         1.969102         1.130832
 H         3.602925         2.149375        -0.412142
 H         2.458240         0.643701         1.893804
