19
Iteration:  1010charge 0 multiplicity 1
 C         0.125095         0.971236        -0.122452
 C         1.415120         0.278444        -0.064707
 C         2.537321         0.047218        -1.224395
 C         3.396591        -0.383170         0.127170
 C         2.715086        -1.693187         0.617771
 O         1.355160        -1.148972         0.425864
 O         4.691945         0.133221         0.162409
 C         3.970463         1.421244         0.400122
 C         2.627250         0.718456         0.813874
 H        -0.281237         1.293050         0.873543
 H         0.023054         1.843218        -0.887735
 H        -0.552672         0.183764        -0.630324
 H         2.283114        -0.837405        -1.756956
 H         2.921417         0.869398        -1.906986
 H         2.840418        -2.591322        -0.057320
 H         3.023844        -1.932429         1.627694
 H         4.383858         2.004245         1.303130
 H         3.993498         2.057138        -0.424909
 H         2.458526         0.548029         1.974715
