19
Iteration:  3252charge 0 multiplicity 1
 C         0.083154         0.791131        -0.261263
 C         1.471804         0.268113        -0.046020
 C         2.392542         0.079685        -1.145673
 C         3.334130        -0.407347         0.034790
 C         2.628818        -1.609127         0.536586
 O         1.380539        -0.982123         0.638528
 O         4.688718         0.018923         0.112482
 C         4.096197         1.413868         0.405037
 C         2.741805         0.737161         0.876608
 H        -0.502271         0.821749         0.649846
 H         0.136937         1.767068        -0.673211
 H        -0.454012         0.310947        -1.113592
 H         2.232984        -0.395335        -2.129977
 H         2.927698         1.030285        -1.554775
 H         2.628963        -2.609278         0.056501
 H         2.984111        -1.840909         1.548858
 H         4.625439         1.978220         1.150724
 H         3.981749         1.810088        -0.623951
 H         2.639078         0.764501         1.976687
