19
Iteration:  3827charge 0 multiplicity 1
 C         0.132956         0.870922        -0.196278
 C         1.530051         0.358591         0.007698
 C         2.462388         0.003507        -1.208000
 C         3.350073        -0.425197         0.025026
 C         2.606515        -1.698253         0.588360
 O         1.283645        -1.065635         0.509082
 O         4.657485         0.086240         0.148126
 C         4.093299         1.412834         0.416394
 C         2.735980         0.805142         0.836817
 H        -0.217317         1.174197         0.843715
 H         0.122377         1.837474        -0.748302
 H        -0.485710         0.005100        -0.564402
 H         1.969263        -0.707024        -1.828854
 H         2.822219         0.848802        -1.756577
 H         2.544278        -2.531338        -0.060447
 H         2.998926        -1.996757         1.570733
 H         4.904823         1.815440         1.057439
 H         4.013592         2.074231        -0.482879
 H         2.621950         0.730078         1.912060
