19
Iteration:  3847charge 0 multiplicity 1
 C        -0.010148         0.878019        -0.231098
 C         1.435694         0.314487        -0.055404
 C         2.370227         0.057233        -1.163340
 C         3.379150        -0.373745         0.031469
 C         2.624998        -1.597119         0.606717
 O         1.296263        -1.010344         0.547399
 O         4.793746         0.035259         0.109813
 C         4.132499         1.371915         0.426273
 C         2.775827         0.679712         0.828062
 H        -0.581663         1.131252         0.651703
 H         0.019019         1.781956        -0.778732
 H        -0.361420        -0.015707        -0.626094
 H         2.113818        -0.723857        -1.921643
 H         2.704484         0.974942        -1.651038
 H         2.925896        -2.502455         0.065005
 H         2.852806        -1.787398         1.673033
 H         4.504773         1.806354         1.381732
 H         4.518737         2.002915        -0.455310
 H         2.653885         0.478536         1.929552
