19
Iteration:   810
 C         0.247009         0.912888        -0.213751
 C         1.521647         0.289555        -0.026620
 C         2.461718        -0.000245        -1.163288
 C         3.396032        -0.432553         0.018534
 C         2.688592        -1.704636         0.582469
 O         1.305277        -1.111285         0.477734
 O         4.630695         0.268443         0.114988
 C         3.954974         1.448638         0.503125
 C         2.654478         0.640368         0.898046
 H        -0.281863         1.553229         0.644758
 H         0.357176         1.605133        -1.075719
 H        -0.331238         0.083059        -0.646061
 H         2.280089        -0.598283        -2.070542
 H         2.839372         0.915210        -1.588082
 H         2.703443        -2.587202        -0.076033
 H         2.889470        -2.090245         1.560029
 H         4.527424         1.994832         1.262251
 H         3.802974         1.984342        -0.418396
 H         2.432278         0.290356         1.842714
