19
Iteration:  2519
 C         0.097301         0.826793        -0.267198
 C         1.505818         0.318274        -0.032349
 C         2.401854        -0.031883        -1.149861
 C         3.339215        -0.377266        -0.011710
 C         2.581069        -1.546488         0.660976
 O         1.276889        -1.035674         0.545825
 O         4.686780         0.132928         0.034089
 C         4.189919         1.367865         0.495083
 C         2.750269         0.752439         0.854604
 H        -0.521559         1.153179         0.559979
 H         0.031817         1.427849        -1.254468
 H        -0.337420        -0.132645        -0.580733
 H         2.109684        -0.971628        -1.766778
 H         2.690083         0.757130        -1.822987
 H         2.867823        -2.461805         0.047327
 H         2.906221        -1.860855         1.718158
 H         4.635448         1.472670         1.504591
 H         4.506075         2.271883        -0.130093
 H         2.594420         0.589983         1.946757
