19
Iteration:   888charge 0 multiplicity 1
 C         0.049709         0.822824        -0.182682
 C         1.424928         0.305874        -0.109768
 C         2.516704         0.002202        -1.250453
 C         3.355433        -0.403278         0.063212
 C         2.673941        -1.619827         0.559800
 O         1.288235        -1.069847         0.497533
 O         4.729729         0.198177         0.202722
 C         4.079774         1.403487         0.463604
 C         2.760941         0.690732         0.877136
 H        -0.614369         0.367834         0.698823
 H         0.030874         1.905380        -0.237248
 H        -0.434269         0.263548        -1.017572
 H         2.110329        -0.674895        -2.060365
 H         2.991999         0.816285        -1.734634
 H         2.705056        -2.481460        -0.102180
 H         2.956715        -1.745160         1.568202
 H         4.571516         2.031417         1.234284
 H         3.913643         1.989243        -0.427710
 H         2.437094         0.563888         1.923499
