19
Iteration:  4241
 C         0.177989         1.002072        -0.125691
 C         1.494260         0.240066        -0.050770
 C         2.488509        -0.124211        -1.124537
 C         3.299467        -0.461061         0.014675
 C         2.656662        -1.694943         0.580018
 O         1.304473        -1.052145         0.494454
 O         4.753671         0.131738         0.119942
 C         3.962745         1.508454         0.339794
 C         2.684665         0.722646         0.863735
 H        -0.311424         0.997211         0.961950
 H         0.619234         2.107245        -0.241594
 H        -0.614145         0.797679        -0.921226
 H         2.046979        -0.974171        -1.677509
 H         2.617347         0.600186        -1.968068
 H         2.802330        -2.595417        -0.170023
 H         2.919133        -2.001155         1.679879
 H         4.394427         2.150119         1.155230
 H         3.987540         2.137818        -0.554060
 H         2.726804         0.697313         2.033273
