19
Iteration:   544charge 0 multiplicity 1
 C         0.176950         1.029335        -0.190979
 C         1.480991         0.285105        -0.078942
 C         2.449582        -0.123956        -1.098834
 C         3.366269        -0.410866         0.109401
 C         2.722422        -1.684334         0.577995
 O         1.370098        -1.167126         0.417369
 O         4.666016         0.272269         0.056242
 C         3.921949         1.454160         0.495761
 C         2.649440         0.663270         0.883514
 H        -0.511851         0.851442         0.657326
 H         0.348375         2.168908        -0.355181
 H        -0.318057         0.691196        -1.183347
 H         2.142819        -1.098299        -1.672167
 H         3.060916         0.548996        -1.684947
 H         2.929270        -2.445641        -0.155413
 H         2.762306        -2.060042         1.609455
 H         4.447567         1.867110         1.397567
 H         4.125129         2.277598        -0.354767
 H         2.512067         0.475368         1.882649
