19
Iteration:  3313charge 0 multiplicity 1
 C         0.235460         1.017449        -0.080162
 C         1.505013         0.260768        -0.085660
 C         2.477727        -0.106058        -1.278848
 C         3.395428        -0.476464        -0.012756
 C         2.682232        -1.611237         0.593369
 O         1.291659        -1.095033         0.593801
 O         4.611119         0.190749         0.116822
 C         3.971035         1.423897         0.485485
 C         2.680550         0.656947         0.722126
 H        -0.149000         1.154879         1.006434
 H         0.445774         2.125418        -0.449357
 H        -0.493856         0.513819        -0.819822
 H         2.182876        -0.973862        -1.894029
 H         2.902418         0.725003        -1.807220
 H         2.657503        -2.605043         0.058281
 H         2.994087        -1.730969         1.692869
 H         4.423816         1.993994         1.402004
 H         4.120053         2.040610        -0.383170
 H         2.388346         0.747402         1.795573
