19
Iteration:  3766charge 0 multiplicity 1
 C         0.292521         1.091104        -0.129242
 C         1.531155         0.269120        -0.036371
 C         2.387415        -0.097581        -1.229035
 C         3.371698        -0.451271         0.006138
 C         2.676173        -1.612200         0.666746
 O         1.296532        -1.147723         0.508462
 O         4.700449         0.149816         0.097512
 C         3.893190         1.430805         0.457527
 C         2.668822         0.686269         0.831565
 H        -0.318785         1.018476         0.724738
 H         0.594920         2.027908        -0.542901
 H        -0.269968         0.868466        -1.016970
 H         1.865059        -0.866030        -1.833146
 H         2.900664         0.611216        -1.915672
 H         2.868979        -2.516401        -0.029669
 H         3.092578        -1.775381         1.677248
 H         4.611959         1.816617         1.157178
 H         3.735315         2.037568        -0.483494
 H         2.403015         0.456235         1.858868
