19
Iteration:  4261
 C         0.156802         0.992331        -0.165816
 C         1.545533         0.330488        -0.027720
 C         2.369243        -0.089214        -1.232051
 C         3.343018        -0.408620         0.072483
 C         2.661586        -1.623161         0.562018
 O         1.309293        -1.069854         0.608921
 O         4.686946         0.151525         0.099098
 C         4.006259         1.380251         0.424835
 C         2.743012         0.689517         0.821707
 H        -0.514580         0.775829         0.751179
 H         0.223103         2.016116        -0.662030
 H        -0.273902         0.349256        -0.948021
 H         2.093647        -0.842033        -2.027984
 H         2.832846         0.791650        -1.870948
 H         2.743447        -2.608551        -0.082950
 H         3.198160        -1.937872         1.566567
 H         4.608198         1.941010         1.151056
 H         4.049191         1.885305        -0.516942
 H         2.482033         0.576912         1.949542
