19
Iteration:  1769charge 0 multiplicity 1
 C         0.161755         0.879390        -0.182705
 C         1.469079         0.189904        -0.159016
 C         2.502555         0.083328        -1.196039
 C         3.383143        -0.384135         0.109868
 C         2.652137        -1.625525         0.606152
 O         1.279938        -1.061888         0.535671
 O         4.665178         0.070309         0.118711
 C         4.020380         1.405574         0.426134
 C         2.717612         0.763911         0.880086
 H        -0.559833         0.663643         0.663183
 H         0.233343         1.942928        -0.537014
 H        -0.386093         0.384545        -1.109992
 H         2.421464        -0.681925        -2.028288
 H         2.764394         0.986091        -1.712951
 H         2.791534        -2.550033        -0.039706
 H         3.015628        -1.766028         1.647203
 H         4.436849         1.858248         1.256334
 H         4.008383         2.152789        -0.330718
 H         2.560324         0.633247         2.006967
