19
Iteration:  2564charge 0 multiplicity 1
 C         0.239589         0.973496        -0.203059
 C         1.505209         0.265813        -0.047436
 C         2.452258        -0.124677        -1.208815
 C         3.359101        -0.436932         0.062205
 C         2.665625        -1.609372         0.557792
 O         1.282718        -1.083097         0.640725
 O         4.703341         0.143006         0.123460
 C         3.950825         1.428574         0.445802
 C         2.693307         0.701247         0.727836
 H        -0.311085         1.233345         0.701877
 H         0.362628         2.046221        -0.657755
 H        -0.560362         0.606129        -0.802390
 H         2.157480        -0.899861        -1.949528
 H         2.891649         0.805474        -1.688454
 H         2.644291        -2.605572         0.006718
 H         3.090762        -1.871878         1.616772
 H         4.412543         2.083867         1.248167
 H         3.878573         2.124466        -0.453458
 H         2.555119         0.646017         1.839385
