19
Iteration:  2090
 C        -0.012267         0.850044        -0.204530
 C         1.405518         0.366260        -0.106995
 C         2.409103        -0.081393        -1.142081
 C         3.407834        -0.404630        -0.005496
 C         2.758318        -1.580174         0.521494
 O         1.289112        -0.996611         0.524023
 O         4.741859         0.086707         0.146957
 C         4.118872         1.436457         0.534499
 C         2.699195         0.737046         0.817671
 H        -0.629737         0.480248         0.680491
 H        -0.119665         1.944007        -0.375448
 H        -0.411383         0.277269        -1.054507
 H         2.258275        -1.074893        -1.717344
 H         3.008329         0.528094        -1.761758
 H         2.642942        -2.558517         0.015494
 H         2.970944        -1.782921         1.566229
 H         4.649748         1.653339         1.370890
 H         4.414939         2.144512        -0.228606
 H         2.569718         0.582907         1.889257
