19
Iteration:  2358charge 0 multiplicity 1
 C         0.074336         0.777463        -0.250464
 C         1.478852         0.314385        -0.013145
 C         2.423701         0.003130        -1.260359
 C         3.391011        -0.413646         0.023633
 C         2.657468        -1.635540         0.498541
 O         1.324774        -0.971268         0.634435
 O         4.723651         0.062713         0.173834
 C         4.062274         1.382290         0.484206
 C         2.677511         0.803428         0.825823
 H        -0.256658         1.234908         0.745313
 H         0.081100         1.709570        -0.975638
 H        -0.685328         0.066548        -0.563443
 H         2.192297        -0.732396        -2.088379
 H         2.824555         0.803486        -1.811645
 H         2.491638        -2.533707        -0.130236
 H         3.111835        -1.928464         1.500402
 H         4.742439         1.924395         1.294770
 H         4.137551         1.906607        -0.433881
 H         2.692875         0.819169         1.935206
