19
Iteration:   115
 C         0.204284         1.007102        -0.085369
 C         1.473897         0.177307        -0.113091
 C         2.401878        -0.093840        -1.218983
 C         3.360223        -0.412217         0.028448
 C         2.695599        -1.694791         0.510615
 O         1.387665        -1.100915         0.476023
 O         4.684133         0.237114         0.245271
 C         3.966181         1.475434         0.474877
 C         2.641979         0.693081         0.747938
 H         0.015474         1.321597         0.980754
 H         0.315090         1.894310        -0.669262
 H        -0.678078         0.435004        -0.374702
 H         2.015490        -0.979947        -1.892149
 H         2.842831         0.855962        -1.734568
 H         2.838113        -2.638966        -0.191287
 H         3.034913        -1.985086         1.569908
 H         4.427919         2.022162         1.292225
 H         3.933473         2.122674        -0.371700
 H         2.467653         0.458526         1.812466
