19
Iteration:  1851
 C         0.184601         1.036075        -0.191098
 C         1.465713         0.276867        -0.070932
 C         2.518548         0.006266        -1.197558
 C         3.381659        -0.461289         0.042209
 C         2.727167        -1.690210         0.650535
 O         1.275694        -1.184118         0.487773
 O         4.692143         0.145531         0.082747
 C         3.960206         1.470097         0.446091
 C         2.622500         0.700869         0.876670
 H        -0.123193         1.479083         0.730296
 H         0.373924         1.881815        -0.815224
 H        -0.527948         0.454947        -0.697999
 H         2.194220        -0.700901        -1.965287
 H         3.041067         0.862524        -1.546269
 H         3.066957        -2.552056         0.017056
 H         2.836505        -1.955960         1.712179
 H         4.485845         1.838919         1.440849
 H         3.834652         2.086638        -0.468644
 H         2.294601         0.662158         1.887977
