19
Iteration:  3524
 C         0.111327         0.992522        -0.181949
 C         1.413595         0.252926        -0.057389
 C         2.456925        -0.076360        -1.209793
 C         3.369250        -0.409546         0.028337
 C         2.705821        -1.688039         0.585667
 O         1.300159        -1.076775         0.563485
 O         4.725537         0.078438         0.098853
 C         4.063538         1.490426         0.454731
 C         2.656314         0.761790         0.782851
 H        -0.102203         1.319913         0.864744
 H         0.188758         1.957888        -0.651156
 H        -0.657834         0.363959        -0.650289
 H         2.150214        -0.859371        -1.917797
 H         2.966635         0.811951        -1.585806
 H         2.667029        -2.683616         0.048241
 H         3.028052        -1.885645         1.626930
 H         4.578340         1.719612         1.347246
 H         4.282374         2.182062        -0.228775
 H         2.453309         0.669706         1.812815
