19
Iteration:  2579
 C         0.277003         1.023228        -0.156594
 C         1.479714         0.236806        -0.081279
 C         2.449856        -0.119791        -1.236956
 C         3.384470        -0.439112         0.002635
 C         2.620148        -1.732416         0.652040
 O         1.255699        -1.086667         0.526503
 O         4.700498         0.191414         0.182631
 C         3.963434         1.531781         0.306857
 C         2.705885         0.709988         0.911714
 H        -0.101858         0.959201         0.884803
 H         0.546328         1.988315        -0.351387
 H        -0.309812         0.441134        -0.887968
 H         2.130807        -1.000779        -1.743489
 H         2.676628         0.707319        -1.900779
 H         2.606340        -2.532073        -0.039558
 H         2.728340        -1.973707         1.672837
 H         4.582559         2.182248         1.063821
 H         3.927291         2.016633        -0.698770
 H         2.635032         0.521209         1.971947
