19
Iteration:  1169charge 0 multiplicity 1
 C         0.036915         0.931383        -0.224979
 C         1.486343         0.277379        -0.036387
 C         2.444680        -0.070599        -1.228352
 C         3.416084        -0.366597         0.020969
 C         2.657653        -1.600872         0.562345
 O         1.346492        -1.109863         0.517450
 O         4.712723         0.161655         0.178829
 C         4.015405         1.442213         0.503679
 C         2.700635         0.654793         0.824937
 H        -0.160557         1.391594         0.812254
 H         0.298114         1.735617        -0.916215
 H        -0.671542         0.200253        -0.700992
 H         2.125617        -0.885286        -1.942238
 H         3.012353         0.853674        -1.723624
 H         2.691546        -2.472272        -0.026685
 H         2.906763        -1.993497         1.587626
 H         4.388813         2.004482         1.299412
 H         4.040224         2.141392        -0.359323
 H         2.618338         0.492294         1.861758
