19
Iteration:  4623charge 0 multiplicity 1
 C         0.102743         0.925438        -0.156628
 C         1.421047         0.248535        -0.095819
 C         2.439177        -0.038843        -1.216756
 C         3.323820        -0.426112         0.072419
 C         2.666028        -1.605746         0.523587
 O         1.286449        -1.073629         0.582369
 O         4.704172         0.103009         0.106122
 C         4.087098         1.420088         0.468791
 C         2.754229         0.763745         0.798874
 H        -0.155715         1.092963         0.892082
 H         0.186022         1.998019        -0.404775
 H        -0.559979         0.296456        -0.740453
 H         2.126411        -0.715877        -2.022166
 H         2.908967         0.938633        -1.594849
 H         2.798059        -2.559760        -0.049973
 H         3.015500        -1.853639         1.583213
 H         4.688466         1.868171         1.284894
 H         4.201006         2.016528        -0.488706
 H         2.695688         0.511322         1.886931
