19
Iteration:  1923
 C         0.030888         0.860593        -0.232221
 C         1.448672         0.313768        -0.019223
 C         2.553399        -0.018545        -1.236898
 C         3.359437        -0.395341         0.098891
 C         2.682286        -1.641507         0.553948
 O         1.310424        -1.051237         0.558018
 O         4.687360         0.057006         0.128388
 C         4.109730         1.456413         0.470205
 C         2.641778         0.764979         0.810046
 H        -0.640399         0.786397         0.659134
 H         0.088526         2.021045        -0.354766
 H        -0.440707         0.406828        -1.169823
 H         2.212288        -0.708299        -1.994452
 H         3.112834         0.931814        -1.638718
 H         2.587541        -2.578616        -0.030080
 H         3.166432        -1.972544         1.480277
 H         4.609733         1.842471         1.279077
 H         3.985623         2.019731        -0.422839
 H         2.726971         0.584168         1.972323
