19
Iteration:  1990charge 0 multiplicity 1
 C         0.215651         0.979853        -0.169926
 C         1.497953         0.223521        -0.053713
 C         2.555403        -0.062124        -1.244415
 C         3.309323        -0.420644         0.040900
 C         2.625910        -1.656794         0.577901
 O         1.346125        -1.111419         0.563517
 O         4.712781         0.166571         0.096510
 C         3.978369         1.460363         0.483793
 C         2.603576         0.699821         0.827508
 H        -0.047141         1.407413         0.833643
 H         0.343341         1.934930        -0.810600
 H        -0.685954         0.542768        -0.596114
 H         2.222036        -0.852309        -1.953300
 H         2.983141         0.849278        -1.648490
 H         2.734705        -2.501960        -0.155649
 H         2.888242        -2.017343         1.567394
 H         4.283829         1.939226         1.307610
 H         4.032763         2.009939        -0.414382
 H         2.160360         0.623779         1.862589
