19
Iteration:  3680charge 0 multiplicity 1
 C         0.066629         0.949670        -0.184490
 C         1.495392         0.279129        -0.091104
 C         2.432953         0.051710        -1.282979
 C         3.310501        -0.399936         0.043568
 C         2.719477        -1.682028         0.567373
 O         1.297928        -1.068474         0.635335
 O         4.750075         0.035764         0.142039
 C         4.079629         1.375268         0.439529
 C         2.685003         0.797555         0.822829
 H        -0.392706         1.143093         0.798633
 H        -0.035561         1.931900        -0.796602
 H        -0.540005         0.108216        -0.593484
 H         2.212003        -0.805633        -2.043174
 H         2.795958         1.011927        -1.796309
 H         2.710872        -2.638918        -0.046252
 H         3.167091        -1.851824         1.564674
 H         4.566086         1.759581         1.367019
 H         4.102368         2.180864        -0.497311
 H         2.461783         0.735103         1.928329
