19
Iteration:  3030
 C         0.289207         1.007490        -0.137821
 C         1.516885         0.215783        -0.044204
 C         2.487376        -0.148029        -1.250970
 C         3.368579        -0.417495         0.020900
 C         2.609750        -1.722144         0.511736
 O         1.263273        -1.028040         0.595690
 O         4.686874         0.205952         0.213525
 C         3.924161         1.459654         0.351537
 C         2.720993         0.696306         0.823963
 H         0.076622         1.245103         0.904096
 H         0.309143         2.032180        -0.637894
 H        -0.583294         0.500011        -0.390205
 H         2.270421        -0.940480        -2.000324
 H         2.855069         0.783611        -1.643671
 H         2.434610        -2.664900        -0.167786
 H         2.815344        -1.951592         1.558314
 H         4.513973         2.232336         0.956794
 H         3.718182         1.927898        -0.576632
 H         2.673418         0.401006         1.849105
