19
Iteration:  1185charge 0 multiplicity 1
 C         0.108124         0.899735        -0.267010
 C         1.453481         0.280485        -0.073230
 C         2.463360         0.036274        -1.169341
 C         3.352624        -0.468670         0.016650
 C         2.733486        -1.707412         0.602174
 O         1.292438        -1.032235         0.508910
 O         4.727797         0.139893         0.109053
 C         4.005905         1.456979         0.530980
 C         2.732602         0.737785         0.881130
 H        -0.530417         1.085250         0.512559
 H        -0.005991         1.728344        -0.960835
 H        -0.499829         0.080920        -0.618181
 H         2.219084        -0.728193        -1.880554
 H         2.639303         0.852987        -1.772327
 H         2.727874        -2.698413        -0.004848
 H         3.106542        -1.691050         1.620843
 H         4.682767         1.787580         1.414225
 H         3.872003         2.071357        -0.361574
 H         2.562373         0.480256         2.004418
