19
Iteration:  1483charge 0 multiplicity 1
 C         0.113099         0.815996        -0.262564
 C         1.497599         0.298183        -0.072215
 C         2.530354         0.045430        -1.120142
 C         3.346349        -0.392497         0.077374
 C         2.606478        -1.631804         0.561521
 O         1.300904        -1.100567         0.533192
 O         4.687632         0.099661         0.096261
 C         4.040634         1.456640         0.493427
 C         2.690266         0.759376         0.801427
 H        -0.349108         1.120469         0.712510
 H         0.355034         1.731779        -0.854244
 H        -0.663510         0.157229        -0.705152
 H         2.322257        -0.652571        -1.887952
 H         2.830076         1.085403        -1.550193
 H         2.605624        -2.684527         0.089533
 H         3.058603        -1.837349         1.578690
 H         4.609224         1.749919         1.397613
 H         4.063752         2.148413        -0.451995
 H         2.740503         0.489540         1.949268
