19
Iteration:  3619charge 0 multiplicity 1
 C         0.264107         1.106587        -0.154702
 C         1.490056         0.253177        -0.072005
 C         2.482658        -0.145105        -1.223417
 C         3.330396        -0.494815         0.051577
 C         2.641059        -1.672852         0.583722
 O         1.340324        -1.093926         0.583530
 O         4.702454         0.209158         0.101794
 C         3.911133         1.412796         0.362691
 C         2.677081         0.686284         0.856498
 H        -0.237219         1.152018         0.837055
 H         0.435438         2.152552        -0.430069
 H        -0.403989         0.594042        -0.845318
 H         2.124050        -0.886077        -1.882102
 H         2.893127         0.739833        -1.684887
 H         2.641181        -2.533232        -0.063618
 H         2.966330        -1.970776         1.602791
 H         4.157447         1.978737         1.286515
 H         3.859807         2.209343        -0.497489
 H         2.612363         0.474155         1.955654
