19
Iteration:   436charge 0 multiplicity 1
 C         0.033440         0.915617        -0.254523
 C         1.492245         0.267336        -0.054061
 C         2.596101         0.034164        -1.209939
 C         3.343357        -0.406871         0.021790
 C         2.618327        -1.670558         0.626039
 O         1.365783        -1.150210         0.554498
 O         4.714225         0.219828         0.054244
 C         3.987096         1.454459         0.549648
 C         2.697111         0.618368         0.876842
 H        -0.323573         1.225573         0.642871
 H         0.197400         1.828824        -0.874177
 H        -0.670718         0.262933        -0.787305
 H         2.180630        -0.470498        -2.180494
 H         2.848492         0.971979        -1.675152
 H         2.758845        -2.525334        -0.020828
 H         2.964799        -1.831149         1.662766
 H         4.534124         1.874479         1.319846
 H         3.835086         2.146856        -0.317380
 H         2.475828         0.359238         1.919524
