19
Iteration:  3552charge 0 multiplicity 1
 C         0.109892         0.777592        -0.190017
 C         1.504649         0.371965        -0.075832
 C         2.452305         0.006140        -1.200302
 C         3.334208        -0.403387         0.028285
 C         2.574523        -1.630759         0.621231
 O         1.295132        -0.991073         0.522579
 O         4.705961         0.095006         0.065124
 C         4.116684         1.375213         0.442989
 C         2.727189         0.749438         0.883230
 H        -0.103233         0.758582         0.879188
 H        -0.178132         1.760440        -0.683478
 H        -0.445237         0.017704        -0.765481
 H         2.187524        -0.800983        -1.957994
 H         3.045797         0.862900        -1.573148
 H         2.526272        -2.626406         0.194644
 H         2.893526        -1.674103         1.686515
 H         4.886981         1.707117         1.235317
 H         4.058201         2.227123        -0.500574
 H         2.564941         0.664424         2.059335
