19
Iteration:  4150
 C         0.090871         0.833151        -0.277086
 C         1.525888         0.363222        -0.035110
 C         2.475780         0.018493        -1.148709
 C         3.321603        -0.405480         0.042379
 C         2.622072        -1.679614         0.571437
 O         1.355575        -1.016803         0.685228
 O         4.638102         0.082777         0.027753
 C         4.136639         1.355379         0.449781
 C         2.683024         0.793117         0.853084
 H        -0.536382         1.181772         0.610279
 H         0.105061         1.757612        -0.895025
 H        -0.425501        -0.010602        -0.816463
 H         2.152147        -0.609181        -2.039802
 H         2.826369         0.974382        -1.609447
 H         2.552244        -2.410959        -0.326208
 H         3.073245        -2.202581         1.497771
 H         4.727572         1.675700         1.269637
 H         4.256239         2.064269        -0.368704
 H         2.389287         0.696809         1.904883
