19
Iteration:   898
 C        -0.032295         0.789660        -0.222301
 C         1.498846         0.278038        -0.077167
 C         2.481312         0.034296        -1.224313
 C         3.393987        -0.368004         0.102967
 C         2.641670        -1.624696         0.559085
 O         1.317192        -1.102160         0.480348
 O         4.695198         0.127231         0.153483
 C         4.075515         1.477598         0.456643
 C         2.750702         0.756168         0.899139
 H        -0.707731         0.590293         0.742030
 H        -0.014035         1.870496        -0.345651
 H        -0.425991         0.583174        -1.220820
 H         2.244169        -0.884220        -1.840915
 H         2.946583         0.843064        -1.713297
 H         2.791937        -2.532539        -0.075966
 H         2.869924        -2.011149         1.566186
 H         4.574656         1.882635         1.291551
 H         4.248243         2.113467        -0.326425
 H         2.845292         0.539205         1.950480
