19
Iteration:  2724
 C         0.114773         1.095221        -0.100855
 C         1.472859         0.268089        -0.119112
 C         2.441320        -0.130091        -1.201494
 C         3.375130        -0.435785         0.030194
 C         2.723050        -1.683717         0.637288
 O         1.295332        -1.082671         0.487171
 O         4.657529         0.155145         0.201599
 C         4.007607         1.473804         0.370446
 C         2.755620         0.624807         0.786536
 H        -0.126859         1.390026         0.916880
 H         0.238901         1.997727        -0.772836
 H        -0.564247         0.314686        -0.484674
 H         2.060919        -1.017835        -1.750547
 H         2.807384         0.721177        -1.825774
 H         2.822707        -2.666230         0.161701
 H         2.889151        -1.840786         1.681032
 H         4.557328         2.193310         1.039973
 H         3.964438         2.070620        -0.623094
 H         2.707546         0.637122         1.897406
