19
Iteration:  4627
 C         0.136535         0.957395        -0.146944
 C         1.454854         0.219098        -0.076468
 C         2.456503        -0.048106        -1.243398
 C         3.327736        -0.432508         0.025299
 C         2.682341        -1.624165         0.511084
 O         1.279496        -1.048962         0.591384
 O         4.673207         0.107798         0.110722
 C         4.103684         1.438923         0.445140
 C         2.700119         0.742317         0.855829
 H        -0.169532         0.968120         0.922548
 H         0.198599         1.966978        -0.568498
 H        -0.654655         0.311305        -0.674343
 H         2.190181        -0.719142        -2.056345
 H         2.923338         0.904518        -1.537201
 H         2.780533        -2.630561         0.000671
 H         2.959247        -1.724898         1.584182
 H         4.561136         1.882531         1.373210
 H         4.163605         2.026647        -0.544467
 H         2.747978         0.546692         1.915433
