19
Iteration:  3656charge 0 multiplicity 1
 C         0.190894         1.022237        -0.139179
 C         1.533177         0.212927        -0.003917
 C         2.472047        -0.111780        -1.184835
 C         3.322244        -0.421107         0.092096
 C         2.625618        -1.638831         0.662082
 O         1.284422        -1.128626         0.430324
 O         4.651805         0.163450         0.038348
 C         4.027562         1.463062         0.431706
 C         2.700201         0.732325         0.823523
 H        -0.115358         1.336081         0.878579
 H         0.375008         1.960107        -0.702368
 H        -0.670963         0.460438        -0.524706
 H         2.183854        -0.842708        -1.982190
 H         2.942008         0.776092        -1.594361
 H         2.835345        -2.557011        -0.017101
 H         2.868436        -1.858123         1.720882
 H         4.514405         1.857504         1.362037
 H         4.294928         2.128555        -0.598872
 H         2.615477         0.582332         1.873539
