19
Iteration:   897
 C        -0.030602         0.790215        -0.214311
 C         1.490863         0.280314        -0.084810
 C         2.485138         0.031814        -1.234037
 C         3.393011        -0.368257         0.103815
 C         2.641098        -1.618628         0.556374
 O         1.312774        -1.099933         0.483110
 O         4.696400         0.137640         0.159481
 C         4.076720         1.465263         0.456324
 C         2.760543         0.746687         0.904579
 H        -0.698618         0.576743         0.730521
 H        -0.008350         1.862955        -0.353665
 H        -0.416817         0.574143        -1.203978
 H         2.216946        -0.869085        -1.857962
 H         2.978456         0.839829        -1.709485
 H         2.787775        -2.542536        -0.083624
 H         2.895767        -1.997346         1.598409
 H         4.545565         1.895466         1.242598
 H         4.237174         2.108007        -0.327621
 H         2.802365         0.532208         1.925835
