19
Iteration:  1752charge 0 multiplicity 1
 C         0.110401         0.958654        -0.255977
 C         1.468115         0.310854         0.021239
 C         2.524128        -0.065038        -1.167734
 C         3.377263        -0.418509         0.046988
 C         2.658963        -1.675294         0.643743
 O         1.308397        -1.143015         0.473685
 O         4.721965         0.152227         0.103731
 C         3.997560         1.454556         0.467524
 C         2.657143         0.689598         0.819736
 H        -0.379318         0.874674         0.684942
 H         0.265157         2.051861        -0.316306
 H        -0.491668         0.738195        -1.066083
 H         2.259982        -0.671459        -2.002734
 H         3.023528         0.860216        -1.698905
 H         2.620512        -2.526151        -0.008378
 H         2.930628        -1.765258         1.743981
 H         4.586418         2.129986         1.256032
 H         3.930243         2.086339        -0.503698
 H         2.534919         0.519248         1.863045
