19
Iteration:  4746charge 0 multiplicity 1
 C         0.088044         0.884923        -0.129744
 C         1.442455         0.272270        -0.060677
 C         2.407134        -0.016971        -1.169868
 C         3.405704        -0.350209         0.076344
 C         2.674147        -1.645701         0.526806
 O         1.232156        -1.045518         0.549372
 O         4.717218         0.052960         0.047988
 C         4.204713         1.435612         0.507840
 C         2.738384         0.805498         0.775173
 H        -0.444256         0.509378         0.669451
 H         0.072135         1.911371        -0.312352
 H        -0.453181         0.363556        -0.962552
 H         2.041597        -0.936509        -1.656403
 H         2.590252         0.838676        -1.806992
 H         2.585101        -2.572668        -0.093795
 H         2.867708        -1.866275         1.589579
 H         4.628896         1.764800         1.406445
 H         4.256500         1.987262        -0.403760
 H         2.431075         0.769886         1.797278
