19
Iteration:   564
 C         0.145690         0.986774        -0.236943
 C         1.457874         0.243485        -0.024284
 C         2.515902        -0.074492        -1.270487
 C         3.398951        -0.413320         0.010439
 C         2.732135        -1.701888         0.525514
 O         1.285595        -1.158776         0.563389
 O         4.710204         0.216069         0.135378
 C         3.968949         1.513399         0.514968
 C         2.651024         0.686085         0.894499
 H        -0.589245         0.900092         0.638918
 H         0.477491         2.078470        -0.335290
 H        -0.413744         0.655950        -1.192295
 H         2.252403        -0.970852        -1.913820
 H         2.689722         0.847453        -1.765189
 H         2.574892        -2.645478        -0.052829
 H         3.189075        -1.917542         1.514257
 H         4.448582         1.976294         1.432231
 H         3.901152         2.300166        -0.292675
 H         2.381718         0.485958         1.920533
