19
Iteration:   367charge 0 multiplicity 1
 C         0.107347         0.896553        -0.150767
 C         1.520411         0.265588        -0.057054
 C         2.528577         0.030853        -1.226340
 C         3.443045        -0.492193        -0.014950
 C         2.697878        -1.690159         0.572846
 O         1.288575        -1.114036         0.547923
 O         4.711937         0.193238         0.200831
 C         3.908258         1.480515         0.424279
 C         2.655615         0.697119         0.828049
 H        -0.533187         0.794346         0.782290
 H         0.275122         1.937810        -0.223204
 H        -0.462346         0.610655        -1.028922
 H         2.218757        -0.484567        -2.180664
 H         3.008803         0.867592        -1.775154
 H         2.739450        -2.537169        -0.043407
 H         2.821236        -1.952828         1.593569
 H         4.383843         2.153916         1.248999
 H         3.939798         1.912957        -0.604929
 H         2.557694         0.676891         1.840361
