19
Iteration:  2005charge 0 multiplicity 1
 C         0.263803         1.041664        -0.160148
 C         1.501536         0.244501        -0.069824
 C         2.429384        -0.112350        -1.212283
 C         3.416007        -0.423429         0.094482
 C         2.706063        -1.763201         0.533530
 O         1.261963        -1.118668         0.494067
 O         4.621359         0.203891         0.177330
 C         3.930499         1.481808         0.448027
 C         2.709878         0.751572         0.816873
 H        -0.045263         1.452122         0.842911
 H         0.474848         1.816775        -0.876826
 H        -0.455098         0.324803        -0.611533
 H         2.255450        -1.014528        -1.838561
 H         2.695896         0.729171        -1.845585
 H         2.646118        -2.604413        -0.168659
 H         2.926732        -1.963646         1.609545
 H         4.597641         1.896446         1.314835
 H         3.872092         2.268645        -0.320700
 H         2.696550         0.593915         1.842547
