19
Iteration:  3073
 C         0.121370         1.018008        -0.242274
 C         1.455135         0.295239        -0.045070
 C         2.396608        -0.086779        -1.159444
 C         3.323956        -0.468638         0.011747
 C         2.745513        -1.624829         0.699090
 O         1.306337        -1.126577         0.494312
 O         4.673197         0.123833         0.015291
 C         4.136165         1.415840         0.480085
 C         2.678015         0.770334         0.891609
 H        -0.472260         1.149148         0.646506
 H         0.321000         2.063852        -0.586500
 H        -0.467901         0.427304        -0.870308
 H         1.887887        -0.869827        -1.773018
 H         2.736754         0.766609        -1.711737
 H         2.821507        -2.484345        -0.043283
 H         2.987756        -1.909905         1.729299
 H         4.824339         1.817073         1.378929
 H         4.187488         2.106826        -0.405433
 H         2.507667         0.653850         1.946239
