19
Iteration:   272
 C         0.152094         1.019348        -0.198522
 C         1.497697         0.290367         0.007143
 C         2.446987         0.000635        -1.181693
 C         3.451807        -0.421637         0.048730
 C         2.703212        -1.721287         0.531084
 O         1.329061        -1.163726         0.480426
 O         4.699789         0.240283         0.151230
 C         3.922853         1.466477         0.454667
 C         2.666938         0.637317         0.852550
 H        -0.275265         1.321112         0.764213
 H         0.168346         1.937059        -0.823212
 H        -0.581952         0.260919        -0.561737
 H         2.049746        -0.851593        -1.783269
 H         2.822052         0.615186        -1.964498
 H         2.652360        -2.621604        -0.183800
 H         2.952537        -1.990850         1.616350
 H         4.404062         1.913374         1.237675
 H         3.847943         2.081596        -0.465554
 H         2.692382         0.368020         1.988328
