19
Iteration:   974charge 0 multiplicity 1
 C         0.207397         1.007610        -0.135990
 C         1.536633         0.193282        -0.074562
 C         2.511528        -0.062194        -1.242854
 C         3.338387        -0.353312         0.060888
 C         2.651682        -1.695674         0.583986
 O         1.307232        -1.176597         0.473955
 O         4.705270         0.237323         0.159195
 C         3.970426         1.493660         0.485536
 C         2.633684         0.689941         0.799750
 H        -0.195942         1.362875         0.904403
 H         0.308272         1.846184        -0.793570
 H        -0.577225         0.326514        -0.518710
 H         2.145996        -1.018764        -1.718355
 H         2.790394         0.696313        -1.958978
 H         2.691101        -2.573760        -0.194059
 H         2.873141        -2.120043         1.666331
 H         4.385302         1.863683         1.366811
 H         3.913674         2.302405        -0.348345
 H         2.559918         0.574192         1.838579
