19
Iteration:  1347charge 0 multiplicity 1
 C         0.062682         0.866460        -0.310891
 C         1.446504         0.290247        -0.006404
 C         2.498274         0.057361        -1.216391
 C         3.307988        -0.408492         0.023575
 C         2.748122        -1.696522         0.531293
 O         1.289102        -1.052685         0.636288
 O         4.715172         0.111334         0.105270
 C         4.075328         1.387940         0.546123
 C         2.648902         0.778630         0.797005
 H        -0.306386         1.177799         0.731039
 H         0.237962         1.809984        -0.968675
 H        -0.698907         0.079013        -0.629831
 H         2.519898        -0.757098        -2.063676
 H         3.070752         0.853709        -1.742280
 H         2.787532        -2.544720        -0.177326
 H         3.099447        -1.925872         1.566328
 H         4.539380         1.813080         1.536014
 H         4.040429         2.007903        -0.337783
 H         2.473168         0.751218         1.949373
