19
Iteration:  4104
 C         0.178486         1.008880        -0.144509
 C         1.428347         0.323517        -0.036981
 C         2.407929        -0.044889        -1.228503
 C         3.318059        -0.467235         0.068183
 C         2.678295        -1.723386         0.648398
 O         1.286933        -1.147481         0.506769
 O         4.709964         0.163318         0.130669
 C         4.107744         1.444422         0.372279
 C         2.700546         0.757202         0.772913
 H        -0.248500         1.159623         0.848277
 H         0.430810         2.028492        -0.441021
 H        -0.475063         0.411033        -0.826410
 H         1.918672        -0.925550        -1.790378
 H         2.976133         0.648889        -1.902550
 H         2.745332        -2.731943         0.022889
 H         2.733608        -1.774554         1.801806
 H         4.544489         1.843782         1.319307
 H         4.240075         2.229502        -0.412543
 H         2.638194         0.782611         1.854273
