19
Iteration:   582charge 0 multiplicity 1
 C         0.191804         0.880270        -0.256567
 C         1.479936         0.187261        -0.081540
 C         2.447346         0.042002        -1.206792
 C         3.358537        -0.397094         0.037316
 C         2.689156        -1.637311         0.525623
 O         1.354783        -1.075911         0.593591
 O         4.628051         0.189420         0.204041
 C         4.018800         1.418956         0.509319
 C         2.664507         0.683166         0.742405
 H        -0.290363         0.726593         0.708716
 H         0.324427         1.876030        -0.412619
 H        -0.447924         0.377726        -0.886139
 H         2.141395        -0.532298        -2.015993
 H         2.815055         1.052509        -1.533660
 H         2.928547        -2.471943        -0.183195
 H         2.912841        -1.994361         1.527466
 H         4.423911         1.971822         1.353611
 H         3.896987         2.035762        -0.389386
 H         2.656524         0.524587         1.930948
