19
Iteration:  2140charge 0 multiplicity 1
 C         0.152295         1.047279        -0.219755
 C         1.436094         0.251055        -0.055558
 C         2.540084        -0.064908        -1.173254
 C         3.357533        -0.444674         0.081859
 C         2.701718        -1.675684         0.599645
 O         1.324990        -1.125469         0.530185
 O         4.684138         0.199886         0.077279
 C         3.932693         1.396589         0.453108
 C         2.706887         0.683701         0.879539
 H        -0.370495         1.292077         0.673798
 H         0.476970         1.978027        -0.756716
 H        -0.549264         0.442254        -0.778034
 H         2.234512        -0.808705        -1.903617
 H         2.747992         0.852982        -1.701942
 H         2.810257        -2.424428        -0.208349
 H         2.783171        -2.096883         1.616653
 H         4.562026         2.152687         1.108019
 H         3.895854         1.985857        -0.466610
 H         2.624467         0.621132         2.010126
