19
Iteration:  1023charge 0 multiplicity 1
 C         0.089897         0.858544        -0.176299
 C         1.558301         0.311245        -0.054782
 C         2.451012        -0.016618        -1.222369
 C         3.382972        -0.417136         0.006198
 C         2.634800        -1.613343         0.541923
 O         1.314205        -1.132974         0.491999
 O         4.730997         0.126945         0.197634
 C         3.981884         1.529753         0.475324
 C         2.699973         0.679589         0.840473
 H        -0.356612         1.086330         0.773091
 H         0.281207         1.839867        -0.739019
 H        -0.609187         0.142155        -0.673536
 H         2.264388        -0.775945        -1.973712
 H         2.766963         0.902909        -1.734875
 H         2.688205        -2.560679         0.077509
 H         2.825982        -1.706669         1.558952
 H         4.552606         2.071019         1.277340
 H         3.979339         2.006852        -0.406793
 H         2.589185         0.613646         1.978443
