19
Iteration:  1890
 C         0.266705         0.955879        -0.148951
 C         1.525204         0.261985        -0.086564
 C         2.443039        -0.117608        -1.243543
 C         3.394759        -0.416751         0.079543
 C         2.683266        -1.696919         0.549360
 O         1.242265        -1.099427         0.544728
 O         4.704636         0.167265         0.163562
 C         3.974713         1.487593         0.484836
 C         2.630454         0.750687         0.797297
 H        -0.392556         0.924192         0.766447
 H         0.355005         2.090529        -0.555867
 H        -0.410502         0.533467        -0.993674
 H         2.015129        -0.824312        -1.954345
 H         2.959726         0.779744        -1.874675
 H         2.509188        -2.482877        -0.211423
 H         3.015466        -1.876984         1.581464
 H         4.522129         1.961487         1.230949
 H         3.944845         2.195583        -0.356800
 H         2.602376         0.423149         1.952859
