19
Iteration:   199charge 0 multiplicity 1
 C         0.004367         0.812018        -0.180278
 C         1.477157         0.308976        -0.084714
 C         2.410717        -0.000711        -1.280792
 C         3.354284        -0.397502        -0.030478
 C         2.715886        -1.603464         0.585421
 O         1.385368        -1.028075         0.530721
 O         4.702491         0.144587         0.144081
 C         4.068494         1.439258         0.543581
 C         2.744060         0.641635         0.876266
 H        -0.601060         0.570075         0.638934
 H         0.084103         1.956018        -0.279396
 H        -0.482201         0.533781        -1.151834
 H         1.932955        -0.798854        -1.807860
 H         2.613557         0.704678        -2.029438
 H         2.742615        -2.457764        -0.029897
 H         3.053710        -1.815607         1.556168
 H         4.617449         1.766367         1.532143
 H         4.088892         2.260748        -0.200184
 H         2.539420         0.525737         1.923288
