19
Iteration:  4755
 C         0.097004         0.850408        -0.156840
 C         1.483138         0.274985        -0.037634
 C         2.384412        -0.021136        -1.179078
 C         3.256050        -0.393479         0.065823
 C         2.695114        -1.704804         0.540953
 O         1.273849        -1.026196         0.548703
 O         4.700763         0.104556         0.045645
 C         4.157831         1.387329         0.475751
 C         2.755808         0.835678         0.828680
 H        -0.400761         0.717763         0.818059
 H         0.331246         1.919720        -0.281600
 H        -0.565192         0.579784        -1.053635
 H         2.159005        -0.764839        -1.901957
 H         2.905625         0.728557        -1.849394
 H         2.873797        -2.565599        -0.090546
 H         2.726496        -1.954783         1.593999
 H         4.692565         1.787519         1.264705
 H         4.444570         2.114844        -0.250171
 H         2.571570         0.944964         1.884863
