19
Iteration:  3694charge 0 multiplicity 1
 C         0.016908         0.830571        -0.206214
 C         1.452560         0.396368        -0.033764
 C         2.422698        -0.022528        -1.234881
 C         3.384689        -0.424680        -0.021794
 C         2.677149        -1.586986         0.524393
 O         1.389738        -0.981936         0.643539
 O         4.640224         0.028600         0.187777
 C         4.123244         1.400571         0.481461
 C         2.740920         0.715517         0.774061
 H        -0.396446         0.953359         0.829428
 H         0.068366         1.769223        -0.862095
 H        -0.642249         0.184373        -0.827554
 H         2.013018        -0.694568        -2.030099
 H         2.868327         0.889657        -1.741688
 H         2.633969        -2.338307        -0.219480
 H         2.903814        -2.032449         1.499863
 H         4.608960         1.943246         1.296586
 H         4.229287         1.917625        -0.436696
 H         2.706625         0.467383         1.895935
