19
Iteration:  3648charge 0 multiplicity 1
 C         0.225969         1.096595        -0.095602
 C         1.505383         0.247859        -0.059732
 C         2.473995        -0.142393        -1.243905
 C         3.306128        -0.456555         0.139662
 C         2.685431        -1.692357         0.669453
 O         1.261400        -1.121659         0.409494
 O         4.660440         0.171937         0.032463
 C         3.996020         1.500438         0.397766
 C         2.750423         0.715096         0.903002
 H        -0.188833         1.217336         0.907821
 H         0.278628         1.932015        -0.859431
 H        -0.505969         0.433913        -0.642293
 H         2.127697        -1.031467        -1.924431
 H         2.951229         0.685810        -1.874438
 H         2.772639        -2.630637         0.111103
 H         2.781942        -1.850489         1.742780
 H         4.427762         1.907517         1.311867
 H         3.870833         2.289155        -0.309275
 H         2.702311         0.527446         2.028223
