19
Iteration:  4486charge 0 multiplicity 1
 C         0.149331         0.915371        -0.111232
 C         1.481524         0.293302        -0.063215
 C         2.444959         0.018344        -1.309310
 C         3.354602        -0.509002         0.040027
 C         2.595762        -1.672874         0.621274
 O         1.273264        -1.093092         0.549154
 O         4.735266         0.142608         0.090802
 C         4.019805         1.472443         0.427045
 C         2.757716         0.720213         0.847769
 H        -0.023781         1.427885         0.881545
 H         0.416924         1.827418        -0.714670
 H        -0.810466         0.368143        -0.480054
 H         2.222501        -0.752808        -1.995400
 H         2.978523         0.953606        -1.679934
 H         2.824686        -2.615578         0.126240
 H         2.849560        -1.956990         1.655530
 H         4.638442         1.921380         1.209010
 H         3.839664         1.970708        -0.493862
 H         2.570201         0.716975         1.918368
