19
Iteration:  3773
 C         0.324063         1.108598        -0.159390
 C         1.486881         0.300900        -0.054554
 C         2.363835        -0.134568        -1.226276
 C         3.305015        -0.410105         0.047669
 C         2.619924        -1.647527         0.592986
 O         1.334813        -1.167930         0.531877
 O         4.714947         0.188357         0.125330
 C         3.932360         1.468125         0.437853
 C         2.708366         0.595996         0.785156
 H        -0.177822         1.091373         0.884391
 H         0.674303         2.167228        -0.323967
 H        -0.397132         0.680389        -0.928490
 H         2.094914        -0.984916        -1.815526
 H         2.787280         0.615580        -1.844537
 H         2.718083        -2.617232         0.199780
 H         3.051841        -1.640765         1.615084
 H         4.397549         2.005581         1.297074
 H         3.863473         2.046267        -0.433904
 H         2.593065         0.439175         1.847597
