19
Iteration:  4780charge 0 multiplicity 1
 C         0.158145         1.022467        -0.168368
 C         1.527211         0.340110        -0.035518
 C         2.468033         0.026804        -1.147781
 C         3.340786        -0.412791         0.015563
 C         2.687918        -1.661848         0.557047
 O         1.291387        -1.106740         0.606300
 O         4.704797         0.089899         0.015164
 C         3.975943         1.396801         0.468965
 C         2.691397         0.637454         0.824576
 H        -0.331382         1.028823         0.786404
 H         0.117840         2.033009        -0.486850
 H        -0.357215         0.411726        -0.904822
 H         2.202622        -0.830147        -1.830569
 H         2.782819         0.770366        -1.810733
 H         2.767850        -2.682134         0.041281
 H         2.884023        -1.822355         1.631399
 H         4.588307         2.019013         1.085749
 H         4.062799         2.017690        -0.413812
 H         2.439582         0.642980         1.881968
