19
Iteration:  3397charge 0 multiplicity 1
 C         0.040852         0.840636        -0.216161
 C         1.436530         0.283155        -0.048775
 C         2.468624         0.017319        -1.160878
 C         3.343570        -0.397533        -0.042106
 C         2.631926        -1.624641         0.574247
 O         1.310093        -1.006763         0.637697
 O         4.711947         0.085649         0.157088
 C         4.161198         1.393452         0.429979
 C         2.728646         0.756693         0.751445
 H        -0.401389         0.688926         0.708725
 H        -0.017536         1.851419        -0.535031
 H        -0.572480         0.098875        -0.687809
 H         2.272812        -0.540159        -2.098471
 H         2.822128         0.943942        -1.549759
 H         2.627591        -2.404286        -0.179356
 H         2.831569        -1.959872         1.577007
 H         4.569930         1.791598         1.320744
 H         4.290533         2.120554        -0.432248
 H         2.777537         0.430754         1.806791
