19
Iteration:   687
 C         0.239972         0.967841        -0.215721
 C         1.494997         0.265238        -0.068955
 C         2.433467        -0.111473        -1.122351
 C         3.417996        -0.412498         0.027224
 C         2.737641        -1.744040         0.511518
 O         1.283835        -1.166858         0.507484
 O         4.663210         0.261445         0.140159
 C         3.945775         1.477365         0.515715
 C         2.616944         0.736456         0.866072
 H        -0.297838         1.172536         0.752385
 H         0.587851         2.017864        -0.621240
 H        -0.338424         0.646115        -1.135531
 H         2.009951        -0.976898        -1.691949
 H         2.658686         0.725965        -1.861799
 H         2.777941        -2.460733        -0.291943
 H         3.267105        -2.096520         1.415962
 H         4.376213         1.891610         1.380396
 H         3.992822         2.253659        -0.240190
 H         2.457789         0.673658         1.870076
