19
Iteration:   375charge 0 multiplicity 1
 C         0.148717         0.989172        -0.161230
 C         1.488699         0.304313        -0.097181
 C         2.588421        -0.044035        -1.220710
 C         3.333901        -0.466202        -0.005046
 C         2.764524        -1.738260         0.540246
 O         1.258151        -1.162215         0.577677
 O         4.692875         0.224387         0.216946
 C         3.960317         1.473673         0.394302
 C         2.638901         0.700299         0.797031
 H        -0.402538         0.671326         0.822352
 H         0.238668         2.104734        -0.139579
 H        -0.522198         0.640923        -0.959712
 H         2.255619        -0.715638        -1.896793
 H         2.893223         0.943791        -1.551152
 H         2.876978        -2.622400        -0.127281
 H         3.097131        -2.032664         1.539156
 H         4.211275         2.202504         1.272870
 H         3.812731         2.123027        -0.466000
 H         2.530825         0.568676         1.920006
