19
Iteration:  1408charge 0 multiplicity 1
 C         0.148466         1.022350        -0.183028
 C         1.472332         0.255641        -0.105168
 C         2.508186        -0.025057        -1.232845
 C         3.359142        -0.481427         0.051547
 C         2.647586        -1.712303         0.627592
 O         1.368076        -1.116251         0.512015
 O         4.691673         0.143047         0.171927
 C         3.926161         1.508970         0.440979
 C         2.683847         0.679475         0.784533
 H        -0.256628         0.887720         0.827530
 H         0.324227         2.077472        -0.211558
 H        -0.621408         0.719763        -0.882209
 H         2.286374        -0.911163        -1.791867
 H         3.154044         0.868626        -1.525190
 H         2.789534        -2.575454        -0.078942
 H         2.866681        -1.799136         1.712140
 H         4.396079         2.075514         1.224687
 H         4.017379         2.119488        -0.547606
 H         2.427850         0.641135         1.820778
