19
Iteration:  2331charge 0 multiplicity 1
 C         0.158789         0.923988        -0.173049
 C         1.511976         0.313373        -0.076980
 C         2.502130         0.007183        -1.200741
 C         3.351644        -0.413169         0.148652
 C         2.659756        -1.661506         0.616550
 O         1.284889        -1.121947         0.542476
 O         4.658446         0.122382         0.105615
 C         4.031404         1.429081         0.424784
 C         2.651511         0.703002         0.738467
 H        -0.071977         1.313885         0.797316
 H         0.185311         1.730062        -0.827726
 H        -0.662226         0.237029        -0.421741
 H         2.271707        -0.713403        -1.986276
 H         3.068475         0.905441        -1.674169
 H         2.671370        -2.526446        -0.044913
 H         2.959786        -1.892169         1.640359
 H         4.591311         1.866674         1.198109
 H         4.109958         2.188754        -0.494264
 H         2.660621         0.765506         1.809176
