19
Iteration:   942
 C         0.139112         0.919652        -0.281862
 C         1.450880         0.283734        -0.027258
 C         2.537123         0.006942        -1.237996
 C         3.340875        -0.386668        -0.004552
 C         2.672018        -1.697320         0.581229
 O         1.387818        -1.106622         0.592570
 O         4.651668         0.140974         0.103673
 C         3.959681         1.508280         0.530579
 C         2.708566         0.675491         0.862946
 H        -0.406259         0.862321         0.762646
 H         0.182271         1.953823        -0.637144
 H        -0.360039         0.437220        -1.153926
 H         2.185886        -0.831157        -1.884844
 H         2.774027         0.928427        -1.741575
 H         2.698608        -2.651207        -0.075782
 H         3.017379        -2.063182         1.588708
 H         4.494725         1.986940         1.320070
 H         3.886656         2.240137        -0.178566
 H         2.487364         0.376422         1.882536
