19
Iteration:    82charge 0 multiplicity 1
 C         0.163038         0.952329        -0.102533
 C         1.510429         0.297721        -0.075216
 C         2.570317         0.008425        -1.164890
 C         3.297613        -0.358258         0.052349
 C         2.629010        -1.685024         0.610879
 O         1.347692        -1.237349         0.473404
 O         4.697733         0.181244         0.080311
 C         3.980845         1.427685         0.427762
 C         2.596336         0.747907         0.811713
 H        -0.246951         1.002495         0.951067
 H         0.252291         1.995467        -0.358637
 H        -0.559773         0.465133        -0.752841
 H         2.202491        -0.835155        -1.895982
 H         3.099531         0.846317        -1.756228
 H         2.952577        -2.540241        -0.120075
 H         3.063478        -1.800208         1.670048
 H         4.535852         1.848124         1.266451
 H         3.916003         2.121118        -0.374975
 H         2.373756         0.611221         1.883446
