19
Iteration:  4408
 C         0.148959         0.970603        -0.186437
 C         1.478375         0.277969        -0.031462
 C         2.488784        -0.049661        -1.238426
 C         3.337276        -0.475060         0.031495
 C         2.672456        -1.648986         0.642558
 O         1.296813        -1.045810         0.579526
 O         4.664568         0.094585         0.020694
 C         4.014328         1.459493         0.453187
 C         2.734456         0.744315         0.892375
 H        -0.478994         0.887993         0.723332
 H         0.272656         2.053677        -0.346203
 H        -0.285810         0.394474        -1.114439
 H         1.961015        -0.738689        -1.866092
 H         2.885482         0.767032        -1.856708
 H         2.616811        -2.494932        -0.076462
 H         3.026012        -1.959227         1.647515
 H         4.657244         2.053964         1.172074
 H         3.899670         2.105625        -0.391122
 H         2.855318         0.315474         1.843742
