19
Iteration:  3292
 C         0.045983         0.923054        -0.150095
 C         1.457976         0.368680        -0.095893
 C         2.424471        -0.141703        -1.201829
 C         3.329895        -0.412407         0.114985
 C         2.672424        -1.673157         0.574203
 O         1.341496        -1.044957         0.504143
 O         4.752400         0.094979         0.068552
 C         4.077670         1.437582         0.431088
 C         2.700291         0.803841         0.867687
 H        -0.206492         0.873354         0.954447
 H         0.051055         2.058893        -0.414981
 H        -0.544735         0.449761        -0.973189
 H         2.135875        -1.012876        -1.827946
 H         2.922370         0.632708        -1.797640
 H         2.707272        -2.569266        -0.064050
 H         2.975602        -1.950513         1.618350
 H         4.653173         1.869218         1.404238
 H         4.077954         2.161254        -0.392103
 H         2.511020         0.528761         1.941228
