19
Iteration:  4302
 C         0.083989         0.830101        -0.219368
 C         1.406583         0.322499        -0.036916
 C         2.463471        -0.045522        -1.174273
 C         3.306237        -0.367121         0.034952
 C         2.668444        -1.547193         0.587112
 O         1.292161        -1.030355         0.604281
 O         4.717624         0.084500        -0.000663
 C         4.198081         1.343328         0.446309
 C         2.722912         0.779512         0.875650
 H        -0.332166         1.018330         0.751789
 H         0.138434         1.622610        -0.894444
 H        -0.588681         0.116854        -0.665403
 H         2.250264        -0.851420        -1.882388
 H         2.748608         0.971720        -1.633087
 H         2.765259        -2.424334        -0.001491
 H         2.784453        -2.046165         1.526306
 H         4.514433         1.650134         1.441770
 H         4.079379         2.193539        -0.318037
 H         2.578006         0.608852         1.950396
