19
Iteration:  3438charge 0 multiplicity 1
 C         0.102119         0.906072        -0.177259
 C         1.521557         0.331119        -0.047123
 C         2.415107        -0.085620        -1.147615
 C         3.365513        -0.420480         0.063174
 C         2.701345        -1.613977         0.613336
 O         1.330342        -1.055419         0.493748
 O         4.624130         0.093925         0.061813
 C         4.082068         1.385504         0.508008
 C         2.723319         0.812006         0.773079
 H        -0.364420         0.647982         0.848520
 H         0.064395         1.976786        -0.369087
 H        -0.497766         0.515969        -1.036959
 H         2.024503        -0.918042        -1.828160
 H         2.736973         0.819657        -1.766203
 H         2.671490        -2.477637        -0.040994
 H         3.003722        -1.921698         1.582141
 H         4.551816         1.756081         1.414909
 H         4.324188         2.056653        -0.454335
 H         2.570495         0.664251         1.828857
