19
Iteration:  2150
 C         0.132065         1.076641        -0.228884
 C         1.500861         0.235104        -0.066756
 C         2.399086        -0.125574        -1.225574
 C         3.451677        -0.404649         0.103201
 C         2.664048        -1.684856         0.554191
 O         1.322238        -1.139453         0.496321
 O         4.681868         0.213459         0.117233
 C         3.991249         1.498710         0.411629
 C         2.695251         0.655154         0.981717
 H        -0.143731         1.382330         0.762344
 H         0.241805         2.011914        -0.851443
 H        -0.681852         0.569007        -0.818474
 H         2.237535        -1.058638        -1.710055
 H         2.953354         0.602599        -1.865543
 H         2.682086        -2.592638        -0.109987
 H         2.909087        -2.056156         1.616788
 H         4.631123         1.983056         1.297105
 H         3.772651         2.044985        -0.482397
 H         2.610566         0.433789         2.088024
