19
Iteration:   746
 C         0.086479         0.803146        -0.135273
 C         1.501102         0.334358        -0.129257
 C         2.454792         0.030393        -1.290162
 C         3.352396        -0.359357         0.053343
 C         2.668814        -1.594623         0.599019
 O         1.355030        -1.152015         0.483527
 O         4.698802         0.067810         0.191704
 C         4.055008         1.504538         0.537802
 C         2.665063         0.762694         0.801118
 H        -0.691848         0.493954         0.591080
 H         0.198708         1.836425        -0.268048
 H        -0.305370         0.416420        -1.043620
 H         2.075688        -0.791071        -1.931631
 H         2.790003         0.885129        -1.827376
 H         2.732194        -2.456372        -0.071327
 H         2.926660        -1.883377         1.607982
 H         4.554710         1.933992         1.517043
 H         4.094604         2.114411        -0.443216
 H         2.650678         0.534010         1.923862
