19
Iteration:   156charge 0 multiplicity 1
 C         0.054672         0.821474        -0.246845
 C         1.451190         0.263978        -0.044498
 C         2.453602         0.076288        -1.114216
 C         3.359921        -0.411748         0.133906
 C         2.690574        -1.692388         0.498359
 O         1.361185        -1.090572         0.542227
 O         4.673474         0.176237         0.030190
 C         4.063372         1.421269         0.471843
 C         2.694083         0.723135         0.891243
 H        -0.405643         1.108077         0.617900
 H         0.262968         1.853134        -0.717951
 H        -0.580289         0.197201        -0.873485
 H         2.380753        -0.648415        -1.971187
 H         3.038019         0.901689        -1.548980
 H         2.708211        -2.540799        -0.147845
 H         2.833814        -1.863214         1.525925
 H         4.617739         1.900638         1.422654
 H         4.063722         2.124199        -0.354588
 H         2.604611         0.680870         1.908728
