19
Iteration:  1188charge 0 multiplicity 1
 C         0.118656         0.893798        -0.276221
 C         1.466329         0.279603        -0.077765
 C         2.441374         0.057074        -1.168650
 C         3.381330        -0.444410         0.030003
 C         2.743866        -1.710015         0.597726
 O         1.262165        -1.039885         0.517607
 O         4.707735         0.140791         0.097123
 C         4.027159         1.440859         0.522544
 C         2.711806         0.731240         0.898010
 H        -0.513391         1.048834         0.649101
 H         0.021705         1.738132        -1.009088
 H        -0.389906        -0.046268        -0.709535
 H         2.191687        -0.749897        -1.893329
 H         2.796542         0.891242        -1.767268
 H         2.665382        -2.729138         0.079314
 H         3.173872        -1.749603         1.589087
 H         4.697403         1.785987         1.354840
 H         3.929577         2.138007        -0.306577
 H         2.512009         0.594361         1.967336
