19
Iteration:   784
 C         0.053916         0.837647        -0.196273
 C         1.463959         0.297079        -0.054904
 C         2.516664         0.000683        -1.211536
 C         3.406647        -0.366492         0.047473
 C         2.667153        -1.629735         0.520857
 O         1.342792        -1.097167         0.548988
 O         4.720095         0.126649         0.128158
 C         3.993588         1.461659         0.545108
 C         2.644238         0.723603         0.817901
 H        -0.368185         1.167020         0.721362
 H         0.163113         1.808545        -0.797228
 H        -0.581012         0.168600        -0.852101
 H         2.456102        -0.794195        -1.959593
 H         3.022057         0.835404        -1.823329
 H         2.823834        -2.437447        -0.272523
 H         2.870029        -2.175646         1.517729
 H         4.469350         1.817524         1.431374
 H         4.119076         2.205285        -0.214629
 H         2.354667         0.551170         1.891537
