19
Iteration:  1865charge 0 multiplicity 1
 C         0.178616         1.087196        -0.218891
 C         1.487911         0.285252        -0.044687
 C         2.465227        -0.112604        -1.145400
 C         3.369570        -0.414217         0.115149
 C         2.713204        -1.705267         0.598340
 O         1.348874        -1.157007         0.412897
 O         4.669899         0.202407         0.105476
 C         3.966494         1.397466         0.473127
 C         2.648963         0.699518         0.847403
 H        -0.217130         1.253894         0.779423
 H         0.304850         1.998674        -0.715746
 H        -0.688775         0.603168        -0.703511
 H         2.197493        -0.981020        -1.835330
 H         2.712849         0.685112        -1.787391
 H         2.623295        -2.585158         0.008509
 H         3.023255        -1.745207         1.653828
 H         4.490327         2.028352         1.218101
 H         3.909050         2.119593        -0.342028
 H         2.675248         0.554064         2.023136
