19
Iteration:  3435
 C         0.092113         0.886259        -0.181437
 C         1.507448         0.314887        -0.049143
 C         2.372168        -0.070646        -1.177733
 C         3.371633        -0.417565         0.044575
 C         2.703536        -1.583480         0.619660
 O         1.362245        -1.026980         0.502476
 O         4.629653         0.094724         0.089113
 C         4.138701         1.347330         0.482385
 C         2.666400         0.815350         0.772265
 H        -0.323725         0.688375         0.871112
 H        -0.034614         2.003682        -0.332487
 H        -0.430349         0.500244        -1.077974
 H         2.041661        -0.906111        -1.765800
 H         2.788680         0.830603        -1.711172
 H         2.729283        -2.487232        -0.074063
 H         2.977410        -1.998629         1.652188
 H         4.511765         1.788645         1.447644
 H         4.324450         2.009202        -0.321672
 H         2.610172         0.495118         1.813069
