19
Iteration:  4259
 C         0.163283         1.002773        -0.158700
 C         1.534741         0.323924        -0.009243
 C         2.369941        -0.098911        -1.236125
 C         3.385609        -0.397435         0.073153
 C         2.672063        -1.619693         0.550292
 O         1.297495        -1.070412         0.596568
 O         4.684620         0.136447         0.103636
 C         3.988755         1.397194         0.425298
 C         2.738403         0.695273         0.823553
 H        -0.453619         0.778810         0.694148
 H         0.224104         1.962669        -0.603978
 H        -0.268273         0.400007        -0.918092
 H         2.096260        -0.906874        -1.964088
 H         2.856549         0.725259        -1.873390
 H         2.704532        -2.557003        -0.025966
 H         3.121573        -1.939015         1.522745
 H         4.622704         1.909721         1.121043
 H         3.951574         1.891822        -0.552784
 H         2.485127         0.554650         1.881712
