19
Iteration:  2906
 C         0.193344         1.039035        -0.152918
 C         1.444201         0.246035        -0.032300
 C         2.518973        -0.025269        -1.105198
 C         3.369753        -0.459901         0.048334
 C         2.652223        -1.735095         0.559312
 O         1.330164        -1.156098         0.567964
 O         4.631296         0.130089         0.111775
 C         4.036290         1.491492         0.278484
 C         2.613844         0.782581         0.819425
 H        -0.272276         1.301869         0.813575
 H         0.491028         2.025768        -0.469914
 H        -0.668058         0.541328        -0.742586
 H         2.274076        -0.748444        -1.911627
 H         3.007308         0.795187        -1.637546
 H         2.815665        -2.720384         0.016912
 H         2.894581        -2.030140         1.655790
 H         4.514998         1.849164         1.231225
 H         4.215756         2.081111        -0.652052
 H         2.683286         0.759630         1.935030
