19
Iteration:  1855
 C         0.167005         1.080471        -0.186094
 C         1.477963         0.264675        -0.110214
 C         2.492033        -0.028635        -1.158594
 C         3.402669        -0.453035         0.080936
 C         2.747815        -1.686505         0.634479
 O         1.285990        -1.187685         0.460471
 O         4.698310         0.167437         0.086425
 C         3.948732         1.443681         0.447833
 C         2.616713         0.736906         0.875384
 H        -0.207327         1.453935         0.786067
 H         0.406954         1.925162        -0.824350
 H        -0.540453         0.396747        -0.726083
 H         2.087007        -0.744100        -1.927345
 H         3.021395         0.821260        -1.574619
 H         2.831921        -2.636861         0.107946
 H         2.932476        -1.979857         1.677726
 H         4.533198         1.786979         1.251869
 H         3.876847         2.089252        -0.420735
 H         2.362199         0.428539         1.988026
