19
Iteration:  1222
 C         0.079139         0.906354        -0.265343
 C         1.456226         0.225527        -0.083475
 C         2.464029        -0.027583        -1.163597
 C         3.372538        -0.363423         0.082040
 C         2.736058        -1.714045         0.527179
 O         1.291297        -1.070251         0.558153
 O         4.677114         0.108329         0.070403
 C         4.077271         1.451737         0.535082
 C         2.692385         0.825042         0.862728
 H        -0.495286         0.771804         0.744564
 H         0.128452         1.962901        -0.620285
 H        -0.358466         0.274878        -1.125918
 H         2.349593        -0.927462        -1.793351
 H         2.870265         0.944973        -1.640627
 H         2.523258        -2.641579        -0.091709
 H         2.997259        -1.945675         1.598594
 H         4.655006         1.757162         1.387575
 H         4.091427         2.237465        -0.253197
 H         2.500422         0.823606         1.898548
