19
Iteration:  3115charge 0 multiplicity 1
 C         0.020816         0.820877        -0.197205
 C         1.513436         0.363616        -0.099839
 C         2.457576         0.006958        -1.237040
 C         3.413798        -0.446522         0.086961
 C         2.663846        -1.676328         0.563936
 O         1.284692        -0.946593         0.686711
 O         4.670391         0.085747         0.074499
 C         4.143390         1.380764         0.447577
 C         2.698232         0.736532         0.788789
 H        -0.478369         0.727651         0.716688
 H         0.175792         1.894405        -0.424445
 H        -0.439279         0.269277        -0.979203
 H         2.201599        -0.558238        -2.093491
 H         3.011611         0.816872        -1.676595
 H         2.554926        -2.478971        -0.068350
 H         2.990275        -2.126497         1.462686
 H         4.654038         1.676102         1.379788
 H         3.995341         2.005554        -0.443323
 H         2.409008         0.830152         1.810158
