19
Iteration:   748
 C         0.081008         0.787964        -0.136553
 C         1.489459         0.340126        -0.134581
 C         2.441379         0.031845        -1.295927
 C         3.354359        -0.361124         0.040712
 C         2.682104        -1.591974         0.590585
 O         1.353523        -1.161191         0.488864
 O         4.692163         0.062694         0.197554
 C         4.068846         1.517550         0.544128
 C         2.673066         0.774950         0.803156
 H        -0.626798         0.533840         0.593029
 H         0.257900         1.822509        -0.287514
 H        -0.366544         0.449742        -1.068176
 H         2.106654        -0.879869        -1.883761
 H         2.794551         0.884598        -1.806398
 H         2.701415        -2.465760        -0.120978
 H         2.823241        -1.912377         1.646778
 H         4.590183         1.942057         1.514278
 H         4.146498         2.148759        -0.408274
 H         2.649979         0.570150         1.996911
