19
Iteration:  1938charge 0 multiplicity 1
 C         0.116916         0.833196        -0.248135
 C         1.497375         0.329666        -0.078828
 C         2.390482         0.014328        -1.151261
 C         3.336574        -0.379439         0.016618
 C         2.683540        -1.626758         0.573954
 O         1.271957        -1.075874         0.505767
 O         4.704196         0.096470         0.150517
 C         4.107644         1.375668         0.466599
 C         2.756013         0.797886         0.890869
 H        -0.465003         0.558225         0.685647
 H        -0.070368         1.896962        -0.529795
 H        -0.315729         0.283230        -1.086640
 H         2.174374        -0.938988        -1.718387
 H         2.614481         0.840480        -1.739549
 H         2.884552        -2.444436        -0.154936
 H         2.766119        -1.813855         1.646878
 H         4.679380         1.849445         1.394256
 H         4.225682         2.056733        -0.404449
 H         2.515693         0.759973         1.866562
