19
Iteration:  2072
 C         0.037040         0.835887        -0.205217
 C         1.540657         0.307260        -0.057600
 C         2.475022        -0.038420        -1.281488
 C         3.361320        -0.377740         0.067636
 C         2.624072        -1.645197         0.596009
 O         1.321521        -1.061310         0.541230
 O         4.706661         0.104848         0.121523
 C         4.119647         1.390023         0.528201
 C         2.703767         0.812553         0.788794
 H        -0.557554         0.597280         0.699739
 H         0.003159         1.895716        -0.297678
 H        -0.593222         0.335612        -1.018876
 H         2.109671        -0.815448        -1.930346
 H         2.694892         0.917129        -1.927871
 H         2.648217        -2.514291        -0.080056
 H         2.962615        -1.840387         1.666366
 H         4.605221         1.904607         1.485151
 H         4.152295         2.217667        -0.195988
 H         2.479982         0.702834         1.855416
