19
Iteration:  1332
 C         0.135499         0.885581        -0.245022
 C         1.511624         0.245686        -0.106085
 C         2.512579        -0.029542        -1.220820
 C         3.375788        -0.384852        -0.015571
 C         2.647253        -1.588180         0.537842
 O         1.368798        -1.056561         0.617288
 O         4.668711         0.074664         0.122782
 C         3.978039         1.455408         0.537311
 C         2.662316         0.723557         0.892392
 H        -0.390800         1.360348         0.611433
 H         0.145671         1.645562        -0.998950
 H        -0.527739         0.176314        -0.760225
 H         2.070842        -0.743619        -1.934291
 H         2.681821         1.029031        -1.702207
 H         2.597416        -2.527110        -0.047416
 H         3.040719        -1.951566         1.507598
 H         4.560771         1.765351         1.321567
 H         4.150601         2.292443        -0.162696
 H         2.485811         0.480146         1.864483
