19
Iteration:  3929charge 0 multiplicity 1
 C         0.267130         1.048259        -0.122801
 C         1.490607         0.239835        -0.018819
 C         2.465080        -0.030466        -1.160037
 C         3.383307        -0.457918         0.025779
 C         2.620651        -1.641693         0.645703
 O         1.251971        -1.168412         0.496907
 O         4.681558         0.116923         0.165859
 C         3.933170         1.471298         0.317303
 C         2.733421         0.699938         0.798565
 H        -0.201009         1.060266         0.883539
 H         0.696195         2.037298        -0.470170
 H        -0.467615         0.870469        -0.982815
 H         2.133050        -0.793012        -1.900671
 H         2.873751         0.816892        -1.743881
 H         2.778811        -2.468781        -0.035890
 H         2.916286        -1.931706         1.642102
 H         4.470152         2.093010         1.051257
 H         3.852813         1.912010        -0.649606
 H         2.575871         0.777794         1.873633
