19
Iteration:  4642charge 0 multiplicity 1
 C         0.225187         0.967160        -0.093428
 C         1.510775         0.286246        -0.018699
 C         2.509042         0.004496        -1.245542
 C         3.369906        -0.418824        -0.070218
 C         2.666395        -1.695136         0.625491
 O         1.306165        -1.073706         0.561772
 O         4.638427         0.135622         0.109414
 C         3.976724         1.418590         0.422760
 C         2.653426         0.670799         0.816687
 H        -0.136976         1.480676         0.845192
 H         0.422990         1.935753        -0.636872
 H        -0.444194         0.363361        -0.666845
 H         2.312137        -0.890539        -1.884102
 H         2.637238         0.834719        -1.877735
 H         2.499254        -2.549751         0.039341
 H         3.080600        -2.023970         1.564073
 H         4.629783         1.844631         1.183269
 H         3.957323         2.144411        -0.318494
 H         2.278999         0.577837         1.865632
