19
Iteration:  2513charge 0 multiplicity 1
 C         0.103677         0.790235        -0.276871
 C         1.529917         0.303953         0.041296
 C         2.435134        -0.022370        -1.189919
 C         3.318976        -0.389785         0.007273
 C         2.581980        -1.597195         0.672435
 O         1.282171        -0.995153         0.515973
 O         4.729793         0.113781         0.037768
 C         4.186368         1.375747         0.482174
 C         2.709340         0.754321         0.823123
 H        -0.597379         1.244805         0.467378
 H        -0.131096         1.516072        -1.021532
 H        -0.435209        -0.135296        -0.551939
 H         2.023416        -0.877082        -1.605699
 H         2.725273         0.895208        -1.782029
 H         2.613729        -2.468608         0.047810
 H         2.928395        -1.660778         1.675697
 H         4.641302         1.687485         1.505058
 H         4.308415         2.286649        -0.102927
 H         2.639766         0.548014         1.886659
