19
Iteration:  1778charge 0 multiplicity 1
 C         0.150839         0.806685        -0.235559
 C         1.482162         0.275534        -0.061243
 C         2.470351         0.037477        -1.204604
 C         3.320341        -0.385452         0.108672
 C         2.692720        -1.629963         0.557690
 O         1.277113        -1.062222         0.529559
 O         4.664081         0.097029         0.143303
 C         4.113957         1.399724         0.490648
 C         2.686071         0.783571         0.795302
 H        -0.344334         0.757662         0.793529
 H         0.184663         1.869197        -0.439297
 H        -0.456566         0.292902        -1.073578
 H         2.234497        -0.703720        -2.071066
 H         2.842964         0.932131        -1.573125
 H         2.545229        -2.510980        -0.103190
 H         3.142371        -1.803936         1.579410
 H         4.590735         1.906303         1.286233
 H         4.119631         1.948787        -0.408533
 H         2.372486         0.812701         1.931383
