19
Iteration:  3932
 C         0.275573         1.038762        -0.119988
 C         1.501682         0.248299        -0.039788
 C         2.449675        -0.030167        -1.140978
 C         3.364511        -0.463494         0.039640
 C         2.628476        -1.640837         0.628893
 O         1.270292        -1.162412         0.496260
 O         4.704479         0.103108         0.160106
 C         3.905152         1.466867         0.337592
 C         2.701972         0.727095         0.788052
 H        -0.215574         1.111294         0.881073
 H         0.727488         2.039195        -0.422282
 H        -0.478659         0.840914        -0.954315
 H         2.093158        -0.759781        -1.962050
 H         2.878122         0.807685        -1.733693
 H         2.798044        -2.611108        -0.019954
 H         2.920591        -1.927231         1.666845
 H         4.499564         2.069368         0.997470
 H         3.932483         1.875579        -0.681797
 H         2.608764         0.846530         1.905684
