19
Iteration:  1246
 C         0.105136         0.958467        -0.173890
 C         1.478949         0.282649        -0.116914
 C         2.436581        -0.075199        -1.210826
 C         3.384913        -0.402265         0.037503
 C         2.660829        -1.646242         0.567973
 O         1.314472        -1.083289         0.540546
 O         4.719274         0.180934         0.220718
 C         4.010660         1.432668         0.461428
 C         2.705629         0.695560         0.778673
 H        -0.539162         0.647147         0.770139
 H         0.202020         2.056777        -0.314412
 H        -0.289036         0.503719        -1.158648
 H         2.072961        -0.967680        -1.778562
 H         2.912963         0.807878        -1.844167
 H         2.790690        -2.502782        -0.109218
 H         3.080964        -1.885085         1.608933
 H         4.493512         1.882548         1.287064
 H         3.955830         2.108757        -0.445762
 H         2.675521         0.352039         1.777687
