19
Iteration:  1251charge 0 multiplicity 1
 C         0.144898         0.962159        -0.162787
 C         1.505448         0.286737        -0.095062
 C         2.437477        -0.067059        -1.237703
 C         3.369233        -0.391416         0.022835
 C         2.656327        -1.649618         0.567729
 O         1.352501        -1.122675         0.530072
 O         4.703505         0.153936         0.224802
 C         3.967957         1.467097         0.464186
 C         2.728996         0.716763         0.766459
 H        -0.469279         0.690157         0.616849
 H         0.153677         2.049606        -0.246876
 H        -0.327940         0.537056        -1.019183
 H         2.228446        -0.949299        -1.837777
 H         2.796136         0.700333        -1.806694
 H         2.447030        -2.578409        -0.042946
 H         2.868295        -1.764511         1.620248
 H         4.462872         1.923651         1.386037
 H         3.854893         1.980857        -0.482556
 H         2.659462         0.525954         1.925330
