19
Iteration:  2419
 C         0.205225         1.058621        -0.195318
 C         1.452087         0.272312        -0.021780
 C         2.573493        -0.129355        -1.226955
 C         3.385817        -0.448688         0.054217
 C         2.643316        -1.652145         0.690206
 O         1.317206        -1.090632         0.515754
 O         4.679337         0.148961         0.042568
 C         3.911986         1.418893         0.423289
 C         2.672482         0.691109         0.828832
 H        -0.260863         0.773959         0.732563
 H         0.378076         2.088161        -0.212491
 H        -0.443388         0.552546        -0.949922
 H         2.269372        -0.813581        -2.082423
 H         2.861854         0.901568        -1.493588
 H         2.619047        -2.627124         0.162023
 H         3.031965        -1.645265         1.722039
 H         4.451671         1.906367         1.154480
 H         3.823715         2.278219        -0.408391
 H         2.480038         0.628313         1.905110
