19
Iteration:  2323charge 0 multiplicity 1
 C         0.099041         0.988127        -0.159253
 C         1.509973         0.285843        -0.102423
 C         2.440345        -0.057635        -1.229525
 C         3.395538        -0.469738         0.129163
 C         2.708412        -1.664131         0.613210
 O         1.287916        -1.116445         0.481657
 O         4.709452         0.139402         0.084735
 C         4.005508         1.431355         0.419252
 C         2.688009         0.764243         0.870208
 H        -0.102402         1.390780         0.819612
 H         0.229240         1.898079        -0.809055
 H        -0.769448         0.347163        -0.516757
 H         2.258736        -0.948037        -1.882017
 H         3.036490         0.765740        -1.598620
 H         2.767865        -2.582542         0.063710
 H         2.773943        -1.883296         1.726790
 H         4.367303         2.017109         1.326807
 H         4.177359         2.046352        -0.548169
 H         2.430448         0.751130         1.960314
