19
Iteration:   786
 C         0.066944         0.835608        -0.223780
 C         1.477350         0.293419        -0.045164
 C         2.515491         0.015697        -1.217398
 C         3.403576        -0.373565         0.040504
 C         2.651445        -1.646215         0.520197
 O         1.342665        -1.094611         0.553611
 O         4.713974         0.129456         0.126689
 C         3.979347         1.476372         0.543793
 C         2.659543         0.714712         0.840830
 H        -0.335637         1.181326         0.791887
 H         0.178127         1.831683        -0.785464
 H        -0.639651         0.143632        -0.778336
 H         2.463823        -0.764867        -1.953743
 H         3.042793         0.813405        -1.833817
 H         2.859688        -2.437673        -0.227847
 H         2.901800        -2.125636         1.509499
 H         4.443341         1.752281         1.402729
 H         4.058858         2.177442        -0.228637
 H         2.365309         0.589804         1.811171
