19
Iteration:  3244
 C         0.057786         0.847733        -0.268822
 C         1.450132         0.291851        -0.064174
 C         2.448537         0.068114        -1.176782
 C         3.399026        -0.417031         0.021870
 C         2.678759        -1.586907         0.572608
 O         1.345212        -1.000643         0.676843
 O         4.683144         0.034692         0.116198
 C         4.069284         1.376833         0.431169
 C         2.754573         0.696078         0.829496
 H        -0.498043         0.878404         0.680400
 H         0.094685         1.917426        -0.708193
 H        -0.489613         0.202080        -1.091872
 H         2.018438        -0.633373        -1.907033
 H         2.668202         1.075241        -1.593754
 H         2.693299        -2.426378        -0.228570
 H         2.993363        -1.930027         1.622149
 H         4.668299         1.902788         1.080881
 H         3.900036         2.047207        -0.464345
 H         2.494665         0.609658         1.882071
