19
Iteration:  2504
 C         0.056044         0.776008        -0.269758
 C         1.460988         0.369815         0.010357
 C         2.463217        -0.004583        -1.211785
 C         3.366107        -0.429182         0.048214
 C         2.634760        -1.647517         0.633282
 O         1.283368        -0.990803         0.534422
 O         4.753468         0.068845         0.041074
 C         4.121359         1.425419         0.518775
 C         2.739003         0.783186         0.822492
 H        -0.304229         1.171434         0.743494
 H         0.129980         1.573326        -0.974590
 H        -0.587486        -0.095377        -0.640353
 H         1.990308        -0.701171        -1.929436
 H         2.858502         0.870841        -1.770133
 H         2.366851        -2.653697         0.272412
 H         2.862988        -1.704262         1.689660
 H         4.625336         1.833360         1.325337
 H         4.029232         2.021472        -0.344695
 H         2.635299         0.670770         1.895974
