19
Iteration:  2710
 C         0.147345         0.976940        -0.187085
 C         1.492883         0.309623         0.022433
 C         2.509612        -0.041640        -1.195920
 C         3.362646        -0.446697         0.070586
 C         2.618348        -1.645818         0.613799
 O         1.290572        -1.161025         0.541363
 O         4.743051         0.139876         0.094786
 C         4.043398         1.398540         0.343720
 C         2.648162         0.796796         0.853814
 H        -0.187502         1.461881         0.728640
 H         0.169890         1.704877        -0.924182
 H        -0.738360         0.394362        -0.503985
 H         2.171628        -0.755987        -1.986347
 H         2.797753         0.842186        -1.702716
 H         2.682470        -2.547519        -0.042313
 H         2.979905        -1.884883         1.663220
 H         4.652548         2.001843         1.173269
 H         3.848201         1.944643        -0.631577
 H         2.508659         0.510886         1.891137
