19
Iteration:   644
 C         0.158391         0.835801        -0.183397
 C         1.486373         0.258781        -0.032158
 C         2.525217         0.077842        -1.206416
 C         3.360746        -0.413430         0.022553
 C         2.687001        -1.684888         0.553893
 O         1.286610        -1.134780         0.491394
 O         4.720848         0.155417         0.136469
 C         4.021740         1.471504         0.538336
 C         2.618364         0.736259         0.800982
 H        -0.035240         1.278499         0.824426
 H         0.039249         1.708236        -0.945410
 H        -0.600887         0.074157        -0.549621
 H         2.154985        -0.647824        -1.964996
 H         2.981436         0.909305        -1.838867
 H         2.706917        -2.663272         0.100363
 H         2.817237        -1.725230         1.641926
 H         4.431341         1.942993         1.412194
 H         4.012312         2.229921        -0.357361
 H         2.370879         0.687196         1.802343
