19
Iteration:  4162
 C         0.118002         0.892352        -0.264282
 C         1.488769         0.392466        -0.049944
 C         2.429447         0.012788        -1.183628
 C         3.327694        -0.429539         0.034753
 C         2.602172        -1.653438         0.505805
 O         1.287275        -1.129337         0.710872
 O         4.696520         0.083919         0.045466
 C         4.150391         1.416847         0.491654
 C         2.743871         0.817091         0.803321
 H        -0.385825         0.911164         0.789847
 H         0.003683         1.692002        -1.044175
 H        -0.443643         0.025034        -0.737423
 H         2.179871        -0.860090        -1.854613
 H         2.916100         0.897445        -1.715180
 H         2.669564        -2.666947        -0.098313
 H         2.914296        -1.940304         1.542613
 H         4.617391         1.732115         1.385352
 H         4.083889         2.168042        -0.257138
 H         2.668540         0.897641         1.934944
