19
Iteration:  4205
 C         0.213146         1.019747        -0.076435
 C         1.520269         0.315512        -0.113756
 C         2.508185        -0.057204        -1.236652
 C         3.327536        -0.423146         0.044426
 C         2.682841        -1.669472         0.658648
 O         1.303870        -1.133848         0.512336
 O         4.665445         0.089667         0.103635
 C         3.923093         1.452930         0.373189
 C         2.669592         0.732067         0.814754
 H        -0.066042         1.025209         1.033647
 H         0.432214         2.065644        -0.417986
 H        -0.598258         0.604404        -0.677608
 H         2.137035        -0.919097        -1.842262
 H         2.962568         0.823593        -1.750285
 H         2.777030        -2.669672         0.081194
 H         3.121911        -1.740351         1.732084
 H         4.421241         1.948301         1.179800
 H         4.040947         2.001523        -0.544540
 H         2.411956         0.627963         1.872666
