19
Iteration:  1058
 C         0.042809         0.837681        -0.290880
 C         1.455806         0.303008        -0.065633
 C         2.501719        -0.052099        -1.187746
 C         3.385943        -0.352167         0.039067
 C         2.643353        -1.652976         0.515327
 O         1.392872        -1.105160         0.624215
 O         4.688506         0.088846         0.066214
 C         4.059680         1.475142         0.551218
 C         2.675572         0.776610         0.869178
 H        -0.578918         0.838837         0.586517
 H         0.101681         1.888158        -0.489691
 H        -0.452231         0.519749        -1.177605
 H         2.138675        -0.844098        -1.914804
 H         2.852289         0.841841        -1.619170
 H         2.827750        -2.420243        -0.143345
 H         3.020488        -1.976467         1.444628
 H         4.509474         1.731163         1.446447
 H         4.104618         2.321167        -0.095601
 H         2.288653         0.844903         1.848331
