19
Iteration:    21charge 0 multiplicity 1
 C         0.121074         0.830346        -0.239903
 C         1.443223         0.220404        -0.058112
 C         2.504345         0.058611        -1.220332
 C         3.294526        -0.387199         0.100930
 C         2.782421        -1.737583         0.472569
 O         1.367657        -1.049469         0.687917
 O         4.633749         0.076598         0.061647
 C         4.068730         1.454526         0.488194
 C         2.608746         0.829502         0.802231
 H        -0.547547         0.791886         0.715138
 H         0.331758         1.895322        -0.315567
 H        -0.373922         0.434385        -1.157652
 H         2.317695        -0.606000        -1.981066
 H         2.862487         1.009294        -1.518023
 H         2.721283        -2.359974        -0.363792
 H         3.029524        -2.223201         1.397797
 H         4.481589         1.689116         1.446656
 H         4.214840         2.397634        -0.222722
 H         2.350891         0.820489         1.958559
