19
Iteration:  3120charge 0 multiplicity 1
 C         0.036916         0.864514        -0.203040
 C         1.466703         0.358853        -0.095495
 C         2.480996         0.011344        -1.246344
 C         3.348134        -0.452461         0.151184
 C         2.659515        -1.706562         0.514436
 O         1.330076        -0.957893         0.689582
 O         4.661115         0.077155         0.094460
 C         4.137097         1.388093         0.412496
 C         2.722181         0.756756         0.775237
 H        -0.563815         0.718664         0.766879
 H         0.062283         1.938136        -0.387973
 H        -0.516844         0.178546        -0.922900
 H         2.226088        -0.835281        -2.031596
 H         3.086702         0.846785        -1.672020
 H         2.677237        -2.575023        -0.303722
 H         2.973476        -2.055857         1.559542
 H         4.644680         1.800690         1.350855
 H         4.085215         2.147890        -0.391521
 H         2.536366         0.794746         1.886634
