19
Iteration:   164charge 0 multiplicity 1
 C         0.066347         0.773107        -0.259958
 C         1.466887         0.250499        -0.029601
 C         2.465900         0.110854        -1.185148
 C         3.364640        -0.376596         0.171143
 C         2.669127        -1.707344         0.540492
 O         1.356314        -1.119094         0.551410
 O         4.639821         0.139807        -0.016697
 C         4.108941         1.432582         0.481179
 C         2.667693         0.789348         0.887238
 H        -0.473122         1.013856         0.693719
 H         0.426107         1.815381        -0.582801
 H        -0.645994         0.341732        -1.008327
 H         2.372120        -0.604579        -1.926798
 H         2.865396         1.027414        -1.447129
 H         2.811764        -2.478161        -0.190912
 H         2.922157        -2.121606         1.520293
 H         4.570521         1.625986         1.478795
 H         4.390664         2.270876        -0.262870
 H         2.393844         1.014102         2.000367
