19
Iteration:  3774
 C         0.321752         1.113146        -0.162547
 C         1.484283         0.301224        -0.058637
 C         2.364270        -0.139551        -1.227128
 C         3.304303        -0.412785         0.045698
 C         2.620425        -1.652702         0.586195
 O         1.335047        -1.167905         0.534999
 O         4.712565         0.192653         0.128318
 C         3.941547         1.472577         0.434623
 C         2.708802         0.593016         0.787247
 H        -0.155694         1.115102         0.872726
 H         0.664284         2.154025        -0.284155
 H        -0.402233         0.668168        -0.897052
 H         2.128806        -0.988680        -1.798170
 H         2.763337         0.630360        -1.831253
 H         2.697979        -2.649121         0.214600
 H         3.024429        -1.644237         1.618349
 H         4.345812         2.029646         1.291494
 H         3.886918         2.047221        -0.403676
 H         2.627172         0.448981         1.832057
