19
Iteration:  3528
 C         0.109023         0.955116        -0.141523
 C         1.430982         0.257877        -0.063800
 C         2.518156        -0.054675        -1.211134
 C         3.357582        -0.400375         0.023890
 C         2.685409        -1.681762         0.633321
 O         1.272319        -1.066264         0.555344
 O         4.724620         0.067794         0.067836
 C         4.073213         1.483873         0.484045
 C         2.653995         0.748354         0.754090
 H        -0.229938         1.241992         0.879557
 H         0.167069         1.888295        -0.789592
 H        -0.602593         0.316670        -0.729692
 H         2.044034        -0.817639        -1.963664
 H         2.908938         0.914947        -1.627212
 H         2.623795        -2.556056         0.018617
 H         3.024995        -1.958179         1.611520
 H         4.487484         1.836357         1.478385
 H         4.379179         2.203833        -0.413578
 H         2.593444         0.710817         1.912584
