19
Iteration:   990charge 0 multiplicity 1
 C         0.181603         0.966998        -0.115506
 C         1.450625         0.302132        -0.103887
 C         2.491844        -0.134340        -1.173030
 C         3.388990        -0.462090         0.095301
 C         2.734632        -1.696322         0.522922
 O         1.325407        -1.194388         0.415242
 O         4.613291         0.163773         0.146179
 C         3.969810         1.523299         0.475011
 C         2.654976         0.810531         0.856364
 H         0.169878         1.360437         0.859057
 H         0.305627         1.859151        -0.829239
 H        -0.728912         0.451824        -0.467884
 H         2.365947        -0.829657        -1.971360
 H         2.942124         0.821223        -1.538539
 H         2.948430        -2.576483         0.025388
 H         2.922141        -1.842377         1.519307
 H         4.533026         2.142853         1.267190
 H         4.054126         2.093634        -0.398252
 H         2.282755         0.789207         1.958716
