19
Iteration:  4035
 C         0.155918         0.973196        -0.217866
 C         1.487404         0.242658        -0.017590
 C         2.369508        -0.049953        -1.166944
 C         3.340990        -0.379621         0.080692
 C         2.630116        -1.656407         0.564658
 O         1.293378        -1.089137         0.564992
 O         4.743135         0.107884         0.109844
 C         4.088402         1.382719         0.379497
 C         2.699106         0.770498         0.830377
 H        -0.366765         1.223564         0.698966
 H         0.440737         1.972826        -0.561976
 H        -0.494064         0.451402        -0.887994
 H         2.018154        -0.917279        -1.680656
 H         2.885747         0.751218        -1.805444
 H         2.822450        -2.500266        -0.238392
 H         2.938849        -1.840712         1.674492
 H         4.593530         1.952136         1.249633
 H         4.048517         2.092096        -0.505846
 H         2.559269         0.624436         1.924798
