19
Iteration:  2733
 C         0.210459         1.042732        -0.077659
 C         1.476859         0.293228        -0.061445
 C         2.362068        -0.155322        -1.272558
 C         3.416221        -0.472297         0.022987
 C         2.722417        -1.651035         0.636808
 O         1.299519        -1.067812         0.476803
 O         4.693547         0.147021         0.221715
 C         3.936353         1.468102         0.359139
 C         2.706483         0.720379         0.767702
 H         0.032128         1.200081         0.971382
 H         0.283870         1.971542        -0.598480
 H        -0.778159         0.681220        -0.514333
 H         2.288031        -1.100614        -1.864765
 H         2.987811         0.372869        -1.949084
 H         2.713516        -2.630654         0.085343
 H         2.996079        -1.818997         1.703343
 H         4.373519         1.983020         1.383752
 H         4.043333         2.047540        -0.643872
 H         2.487948         0.588180         1.846017
