19
Iteration:  4472charge 0 multiplicity 1
 C         0.150240         0.932104        -0.122458
 C         1.520322         0.287264        -0.039191
 C         2.445878        -0.043612        -1.159316
 C         3.398104        -0.364044        -0.033789
 C         2.637866        -1.663219         0.594672
 O         1.278167        -1.030798         0.529408
 O         4.729728         0.100995         0.109851
 C         4.077029         1.357397         0.424135
 C         2.665340         0.761864         0.812508
 H        -0.255586         1.043970         0.873216
 H        -0.057246         1.712140        -0.842156
 H        -0.482941         0.095505        -0.490807
 H         2.025396        -0.768412        -1.874719
 H         2.672855         0.833979        -1.773505
 H         2.457193        -2.487527        -0.038568
 H         2.907395        -1.784073         1.604044
 H         4.522899         1.985171         1.223262
 H         4.076670         2.034305        -0.401885
 H         2.564391         0.510416         1.870544
