19
Iteration:  2241charge 0 multiplicity 1
 C         0.118708         0.848461        -0.279208
 C         1.497972         0.360588         0.054155
 C         2.372387        -0.069932        -1.192948
 C         3.396374        -0.410290         0.075215
 C         2.678787        -1.679940         0.556623
 O         1.243372        -1.072711         0.523914
 O         4.687874         0.093826         0.116477
 C         4.131869         1.471187         0.474443
 C         2.769692         0.850354         0.845653
 H        -0.488216         0.589588         0.611578
 H         0.003887         1.914730        -0.466744
 H        -0.253367         0.310121        -1.071251
 H         2.056341        -0.926464        -1.826313
 H         2.713058         0.675909        -1.878258
 H         2.488654        -2.531604        -0.134531
 H         2.943378        -2.002433         1.535901
 H         4.747418         1.983378         1.269356
 H         4.025000         2.119387        -0.489860
 H         2.565397         0.598500         1.897961
