19
Iteration:  4847charge 0 multiplicity 1
 C         0.108768         1.027886        -0.062483
 C         1.482551         0.301477        -0.064412
 C         2.480706        -0.053800        -1.168003
 C         3.345005        -0.447048         0.047348
 C         2.668930        -1.657892         0.555743
 O         1.369692        -1.048964         0.516765
 O         4.643965         0.067816         0.055582
 C         4.072086         1.378662         0.438781
 C         2.647207         0.743157         0.799795
 H        -0.180853         1.127549         0.988778
 H         0.218782         1.900208        -0.685285
 H        -0.563122         0.405128        -0.557702
 H         2.415669        -0.797785        -1.959035
 H         2.797431         0.717040        -1.814321
 H         2.908504        -2.587507        -0.048122
 H         2.894674        -1.921474         1.620156
 H         4.525135         1.930915         1.291384
 H         4.031988         2.139676        -0.348322
 H         2.358148         0.782557         1.887410
