19
Iteration:  1318
 C         0.193365         0.906831        -0.261343
 C         1.485969         0.311533        -0.017119
 C         2.390651        -0.053600        -1.234300
 C         3.359051        -0.417036         0.048799
 C         2.687961        -1.673167         0.570130
 O         1.297663        -1.050560         0.525169
 O         4.676937         0.209043         0.143345
 C         4.037671         1.404725         0.538657
 C         2.711691         0.676260         0.797299
 H        -0.102518         1.163997         0.704152
 H         0.269865         1.770399        -0.878425
 H        -0.434227         0.142117        -0.608973
 H         2.215771        -0.895364        -1.829818
 H         2.768068         0.778893        -1.747077
 H         2.791103        -2.506930        -0.169787
 H         2.920157        -1.865557         1.592744
 H         4.370820         1.915622         1.472273
 H         3.954025         2.054013        -0.351741
 H         2.545127         0.553962         1.912081
