19
Iteration:  3492
 C         0.308264         1.101611        -0.181458
 C         1.515401         0.278328         0.041781
 C         2.406774        -0.112914        -1.231797
 C         3.355862        -0.437191         0.016345
 C         2.735321        -1.707478         0.531006
 O         1.297888        -1.124117         0.569784
 O         4.691945         0.104899         0.156373
 C         3.872839         1.562826         0.373494
 C         2.637925         0.687621         0.860193
 H        -0.238803         1.362597         0.798756
 H         0.638603         1.967703        -0.746648
 H        -0.479731         0.503758        -0.680322
 H         2.023228        -0.989647        -1.845583
 H         2.974506         0.527933        -1.939984
 H         2.658896        -2.599942        -0.108035
 H         3.016910        -1.929103         1.551489
 H         4.429937         1.966057         1.166844
 H         3.892646         2.128272        -0.494120
 H         2.545027         0.405394         1.866034
