19
Iteration:  2122
 C         0.243284         0.894247        -0.228662
 C         1.515107         0.250196        -0.062723
 C         2.446986         0.067715        -1.173677
 C         3.389078        -0.437626         0.028698
 C         2.664268        -1.692487         0.575600
 O         1.286996        -1.118209         0.593136
 O         4.651355         0.110604         0.108639
 C         3.986573         1.474819         0.405077
 C         2.625966         0.760991         0.852546
 H        -0.307514         0.915315         0.758552
 H         0.340362         1.932453        -0.581484
 H        -0.354322         0.383278        -0.968097
 H         2.350433        -0.699351        -2.023824
 H         2.971936         0.896639        -1.553652
 H         2.553707        -2.635403         0.019735
 H         3.010724        -1.796553         1.580215
 H         4.489424         1.730910         1.297789
 H         4.281705         2.314673        -0.373248
 H         2.478686         0.771496         1.950843
