19
Iteration:  4487
 C         0.154307         0.925504        -0.107425
 C         1.472024         0.293072        -0.071274
 C         2.448595         0.021529        -1.309228
 C         3.350641        -0.518090         0.054254
 C         2.596192        -1.669799         0.618818
 O         1.278915        -1.099629         0.549229
 O         4.728943         0.143600         0.090212
 C         4.023147         1.478744         0.420631
 C         2.760271         0.711517         0.847743
 H        -0.043010         1.417755         0.908729
 H         0.424959         1.821754        -0.755038
 H        -0.795713         0.392140        -0.478413
 H         2.236655        -0.762338        -2.010643
 H         2.973754         0.942562        -1.681600
 H         2.812004        -2.637401         0.104850
 H         2.868699        -1.942987         1.683793
 H         4.615192         1.919760         1.226392
 H         3.816450         2.027085        -0.507958
 H         2.590322         0.714645         1.931001
