19
Iteration:   911
 C         0.076332         0.843216        -0.289281
 C         1.428260         0.280009         0.016425
 C         2.473915         0.005981        -1.081205
 C         3.346915        -0.361934         0.080774
 C         2.702278        -1.695776         0.549739
 O         1.346870        -1.117215         0.459359
 O         4.709236         0.059511         0.089173
 C         4.105523         1.514511         0.496731
 C         2.670636         0.841370         0.825957
 H        -0.615728         0.421152         0.551083
 H         0.078728         1.948013        -0.259233
 H        -0.404161         0.275632        -1.121193
 H         2.230671        -0.781850        -1.829836
 H         2.627132         0.923554        -1.653357
 H         2.773436        -2.466487        -0.198818
 H         2.875323        -1.961214         1.544309
 H         4.682367         1.846373         1.452853
 H         4.109914         2.235807        -0.327584
 H         2.391499         0.862656         1.970705
