19
Iteration:  2814
 C         0.098438         0.826107        -0.282006
 C         1.504085         0.280909         0.040119
 C         2.426304         0.007674        -1.178233
 C         3.334688        -0.408835         0.005431
 C         2.673937        -1.633919         0.554416
 O         1.300587        -1.017011         0.647230
 O         4.630276         0.071940         0.073035
 C         4.120269         1.398411         0.415832
 C         2.782737         0.815727         0.889259
 H        -0.805877         0.941525         0.377971
 H         0.218952         1.902452        -0.649274
 H        -0.243290         0.074923        -0.928282
 H         1.939984        -0.706390        -1.838126
 H         2.934539         0.887712        -1.665406
 H         2.698251        -2.486552        -0.112294
 H         2.873802        -1.940635         1.552520
 H         4.718098         1.869079         1.149109
 H         4.160420         2.052699        -0.587345
 H         2.614578         0.604720         1.942964
