19
Iteration:  1587charge 0 multiplicity 1
 C         0.206043         1.045865        -0.248178
 C         1.490550         0.299551        -0.051116
 C         2.435749        -0.091098        -1.137615
 C         3.362249        -0.423879         0.057009
 C         2.753947        -1.717301         0.598748
 O         1.322017        -1.132037         0.479261
 O         4.651978         0.209881         0.136461
 C         3.972128         1.413972         0.436335
 C         2.628665         0.690021         0.874363
 H        -0.292966         0.908616         0.692101
 H         0.494155         2.100668        -0.421981
 H        -0.153199         0.657313        -1.168943
 H         1.965462        -0.987395        -1.674522
 H         2.915366         0.620616        -1.877841
 H         2.926887        -2.533839        -0.138640
 H         2.736771        -1.971454         1.731840
 H         4.552095         1.994138         1.237729
 H         3.848824         2.151192        -0.392910
 H         2.517308         0.717461         1.904826
