19
Iteration:  3300charge 0 multiplicity 1
 C         0.091581         0.988942        -0.104325
 C         1.498772         0.278759        -0.088457
 C         2.493772        -0.134087        -1.248734
 C         3.339320        -0.426764         0.007617
 C         2.710596        -1.728635         0.633457
 O         1.340632        -0.999840         0.513602
 O         4.681173         0.129843         0.103632
 C         4.045591         1.434827         0.449021
 C         2.669748         0.798058         0.834320
 H        -0.373131         0.934761         0.918176
 H         0.201824         2.093213        -0.472666
 H        -0.687367         0.519076        -0.834065
 H         2.110974        -0.983711        -1.821902
 H         2.781318         0.586537        -1.956116
 H         2.700686        -2.649464        -0.045539
 H         2.917255        -2.063316         1.727141
 H         4.593160         1.752207         1.320699
 H         3.947194         2.196468        -0.303831
 H         2.559303         0.515473         1.891624
