19
Iteration:  3996
 C         0.105493         0.792104        -0.228013
 C         1.475842         0.382116        -0.082954
 C         2.418128         0.059626        -1.244713
 C         3.399998        -0.447181         0.086732
 C         2.611155        -1.645192         0.627775
 O         1.316474        -0.991780         0.639432
 O         4.714548         0.110273         0.028883
 C         4.097986         1.314351         0.500445
 C         2.734335         0.727087         0.800418
 H        -0.337266         1.124849         0.735232
 H         0.310414         1.649783        -0.963367
 H        -0.632457         0.266010        -0.935546
 H         1.816811        -0.719262        -1.857339
 H         2.810522         1.034199        -1.607697
 H         2.508922        -2.467943        -0.053116
 H         2.832233        -1.866638         1.629202
 H         4.591089         1.701525         1.375635
 H         4.199956         1.992305        -0.311870
 H         2.581458         0.705019         1.878133
