19
Iteration:  4052
 C         0.216374         1.051172        -0.113669
 C         1.490598         0.318297        -0.068975
 C         2.427936        -0.142669        -1.203124
 C         3.396228        -0.535001         0.052656
 C         2.618922        -1.717035         0.629679
 O         1.269138        -1.072097         0.531677
 O         4.725374         0.167349         0.166880
 C         3.993409         1.523757         0.372768
 C         2.740370         0.688128         0.748550
 H        -0.275193         0.998623         0.907743
 H         0.379126         2.114434        -0.383936
 H        -0.472032         0.495925        -0.803857
 H         2.162133        -0.725095        -2.116730
 H         2.600749         0.756770        -1.769680
 H         2.485261        -2.579307         0.086295
 H         2.798374        -2.095987         1.577543
 H         4.438978         2.075091         1.141625
 H         4.001474         2.027719        -0.567080
 H         2.654978         0.676064         1.835439
