19
Iteration:   214
 C         0.072666         0.939352        -0.123771
 C         1.482626         0.278452        -0.090193
 C         2.378208        -0.030127        -1.309278
 C         3.465829        -0.437335         0.012955
 C         2.725011        -1.698891         0.573001
 O         1.343178        -1.039749         0.510092
 O         4.712698         0.181818         0.166925
 C         3.983139         1.451121         0.556226
 C         2.693921         0.706854         0.785402
 H        -0.382605         0.469633         0.798237
 H        -0.061004         1.966484        -0.130021
 H        -0.440329         0.491901        -0.944847
 H         2.214200        -0.904673        -2.065175
 H         2.890952         0.953073        -1.664235
 H         2.649972        -2.723356         0.106740
 H         2.898367        -1.891423         1.672315
 H         4.524097         2.077771         1.260561
 H         3.869469         1.971487        -0.375587
 H         2.619003         0.318783         1.752686
