19
Iteration:  1104
 C         0.161646         0.915035        -0.220529
 C         1.488500         0.245935        -0.041363
 C         2.425264        -0.050800        -1.194056
 C         3.435147        -0.433095         0.006156
 C         2.647470        -1.660258         0.619745
 O         1.265100        -1.131938         0.455193
 O         4.731510         0.198499         0.146214
 C         3.935899         1.489063         0.490027
 C         2.747846         0.738589         0.866372
 H        -0.377317         0.852667         0.733493
 H         0.156220         1.938487        -0.386525
 H        -0.393046         0.609822        -1.071129
 H         2.155381        -0.879080        -1.879243
 H         2.952222         0.844296        -1.598458
 H         2.606547        -2.598380         0.151635
 H         2.941280        -1.880480         1.676311
 H         4.452380         2.111053         1.138143
 H         3.896888         2.111423        -0.454161
 H         2.851263         0.400851         1.846899
