19
Iteration:  2377
 C        -0.016090         0.900849        -0.261785
 C         1.534971         0.358219        -0.066836
 C         2.372589        -0.062554        -1.156440
 C         3.351023        -0.402717         0.019866
 C         2.693974        -1.619214         0.522938
 O         1.342914        -1.056285         0.610419
 O         4.701494         0.077762         0.143547
 C         4.150275         1.416206         0.471306
 C         2.727700         0.772607         0.839177
 H        -0.642183         1.028056         0.569203
 H        -0.110295         1.761642        -0.933274
 H        -0.445832         0.027536        -0.778616
 H         2.207105        -1.026161        -1.768100
 H         2.660645         0.779923        -1.740195
 H         2.713346        -2.411506        -0.187997
 H         2.796452        -1.976827         1.575886
 H         4.567849         1.945958         1.364483
 H         4.450456         2.196368        -0.378058
 H         2.611208         0.484164         1.896239
