19
Iteration:  4736charge 0 multiplicity 1
 C         0.038209         0.889647        -0.142436
 C         1.462014         0.331753        -0.038735
 C         2.428072        -0.066563        -1.206410
 C         3.376606        -0.414206        -0.011749
 C         2.599013        -1.552814         0.581457
 O         1.294432        -1.060586         0.552882
 O         4.760145         0.056051         0.107227
 C         4.172669         1.416343         0.450001
 C         2.689254         0.762129         0.820169
 H        -0.471180         0.718923         0.752110
 H        -0.129666         1.910173        -0.206626
 H        -0.374782         0.366993        -1.006558
 H         2.164276        -0.885991        -1.951942
 H         2.630523         0.827957        -1.749940
 H         2.650863        -2.411281        -0.182263
 H         3.087085        -1.947246         1.489779
 H         4.715878         1.757514         1.335708
 H         4.220189         2.294843        -0.245616
 H         2.733322         0.555694         1.872972
