19
Iteration:   317
 C        -0.013746         0.863122        -0.202413
 C         1.454839         0.319021        -0.083531
 C         2.495243        -0.007721        -1.177464
 C         3.306147        -0.369032         0.076012
 C         2.709063        -1.679641         0.545097
 O         1.405762        -1.133033         0.552789
 O         4.701043         0.139990         0.035244
 C         4.129267         1.404402         0.593574
 C         2.640722         0.813212         0.785172
 H        -0.495482         1.113112         0.710626
 H        -0.000632         1.793704        -0.892662
 H        -0.605165         0.104605        -0.797829
 H         2.394928        -0.794063        -1.969060
 H         2.740427         0.866924        -1.731586
 H         2.806266        -2.536465        -0.243508
 H         2.992324        -1.954963         1.621491
 H         4.387134         1.557368         1.581038
 H         4.285648         2.328323         0.004894
 H         2.419936         0.799812         1.965543
