19
Iteration:  3035
 C         0.310642         1.044520        -0.130783
 C         1.510435         0.205990        -0.010521
 C         2.525196        -0.141852        -1.252427
 C         3.362678        -0.445050         0.016917
 C         2.616128        -1.722634         0.533766
 O         1.256684        -1.039690         0.602123
 O         4.645772         0.194253         0.196316
 C         3.964050         1.482487         0.341816
 C         2.680531         0.687152         0.810698
 H         0.146818         1.161577         0.990501
 H         0.262993         1.913208        -0.748814
 H        -0.613497         0.468461        -0.547314
 H         2.238348        -0.900230        -1.998224
 H         2.972679         0.789525        -1.657300
 H         2.512307        -2.430175        -0.236398
 H         2.949685        -2.044401         1.538709
 H         4.420478         2.226871         0.951828
 H         3.705902         2.128332        -0.578640
 H         2.616694         0.395644         1.899492
