19
Iteration:  4749
 C         0.088864         0.869970        -0.141655
 C         1.462804         0.263652        -0.053202
 C         2.396417        -0.002724        -1.161464
 C         3.354362        -0.346367         0.082514
 C         2.692417        -1.670224         0.522096
 O         1.234664        -1.036975         0.551000
 O         4.715459         0.068304         0.041560
 C         4.183450         1.414575         0.506677
 C         2.755542         0.811208         0.778230
 H        -0.454119         0.479498         0.756270
 H         0.201062         1.948505        -0.364935
 H        -0.491151         0.468332        -0.942207
 H         2.050846        -0.932734        -1.746347
 H         2.678499         0.761390        -1.851124
 H         2.656551        -2.627040        -0.091575
 H         2.761961        -1.868440         1.607631
 H         4.709266         1.830363         1.476199
 H         4.359187         2.010972        -0.461904
 H         2.410340         0.859656         1.833844
