19
Iteration:   698
 C         0.267853         1.008230        -0.245492
 C         1.509258         0.253292         0.002312
 C         2.423960        -0.121906        -1.185785
 C         3.339319        -0.404435         0.098194
 C         2.703256        -1.667981         0.491110
 O         1.299464        -1.212843         0.510193
 O         4.694471         0.290801         0.112926
 C         3.963271         1.458909         0.487586
 C         2.651658         0.719285         0.871164
 H        -0.401779         0.748348         0.650994
 H         0.363739         2.169360        -0.367833
 H        -0.350950         0.387471        -0.970975
 H         2.368636        -0.961550        -1.898142
 H         2.860775         0.812403        -1.709293
 H         2.852892        -2.468798        -0.224304
 H         2.602891        -2.114016         1.487686
 H         4.347685         1.828807         1.375234
 H         3.921146         2.169099        -0.311989
 H         2.518997         0.747618         1.867485
