19
Iteration:  2083
 C        -0.039183         0.863440        -0.216318
 C         1.440170         0.333274        -0.075983
 C         2.492161        -0.092442        -1.203082
 C         3.410474        -0.426695        -0.039169
 C         2.713735        -1.584066         0.569468
 O         1.289010        -1.003255         0.524408
 O         4.735554         0.079417         0.138370
 C         4.120192         1.468756         0.517791
 C         2.699793         0.731538         0.858937
 H        -0.419434         0.497077         0.751510
 H        -0.215132         1.899714        -0.337146
 H        -0.493263         0.314106        -1.127479
 H         1.976691        -0.908836        -1.636019
 H         2.731716         0.813136        -1.932110
 H         2.813072        -2.480651        -0.074128
 H         2.961415        -1.944566         1.629375
 H         4.480343         1.612705         1.640165
 H         4.470308         2.101479        -0.296312
 H         2.545141         0.866217         1.931808
