19
Iteration:  2717charge 0 multiplicity 1
 C         0.123891         1.044927        -0.137926
 C         1.490453         0.287349        -0.058767
 C         2.515201        -0.103599        -1.199232
 C         3.347012        -0.469892         0.061832
 C         2.682682        -1.674104         0.626107
 O         1.295024        -1.128235         0.512885
 O         4.700747         0.158085         0.151298
 C         4.052389         1.461292         0.360170
 C         2.687006         0.706401         0.809364
 H        -0.255578         1.502417         0.819642
 H         0.131819         1.939011        -0.869322
 H        -0.647470         0.358312        -0.473354
 H         2.004990        -0.818298        -1.817303
 H         2.626670         0.877786        -1.760495
 H         2.729730        -2.548718        -0.025311
 H         2.885842        -1.710807         1.720960
 H         4.585923         2.046720         1.010642
 H         3.826651         1.887409        -0.559233
 H         2.688974         0.465382         1.886488
