19
Iteration:  2315
 C         0.104365         1.059155        -0.142682
 C         1.447162         0.249148        -0.097485
 C         2.451862        -0.148788        -1.190826
 C         3.404712        -0.447030         0.056689
 C         2.689923        -1.697641         0.648405
 O         1.322765        -1.098818         0.413715
 O         4.743325         0.154293         0.101669
 C         4.001096         1.445120         0.417917
 C         2.704840         0.788952         0.925427
 H        -0.245475         1.361188         0.903297
 H         0.193977         1.992219        -0.853801
 H        -0.665674         0.444454        -0.631054
 H         2.085111        -0.988004        -1.839923
 H         2.775535         0.602269        -1.851883
 H         2.920527        -2.638638         0.076288
 H         2.822039        -1.890778         1.740741
 H         4.513056         1.985402         1.313258
 H         3.875037         2.042657        -0.384551
 H         2.315336         0.722867         1.964583
