19
Iteration:  4916
 C         0.193150         0.970124        -0.145864
 C         1.502738         0.363065        -0.048611
 C         2.443553        -0.075084        -1.154424
 C         3.271328        -0.362538         0.103864
 C         2.637269        -1.720543         0.510091
 O         1.339809        -1.103443         0.617923
 O         4.658097         0.096699         0.019403
 C         4.079499         1.386578         0.425762
 C         2.659177         0.783128         0.835679
 H        -0.465242         0.759010         0.694954
 H         0.347255         2.008905        -0.420196
 H        -0.215042         0.558988        -1.028306
 H         2.336802        -0.775333        -1.930258
 H         2.787919         0.777035        -1.808953
 H         2.650693        -2.570697        -0.172903
 H         3.112614        -2.034981         1.473134
 H         4.760585         1.762400         1.227589
 H         4.135004         2.181047        -0.373230
 H         2.426725         0.813149         1.923249
