19
Iteration:  2723
 C         0.112246         1.096296        -0.105333
 C         1.474784         0.268303        -0.117801
 C         2.453859        -0.125749        -1.200476
 C         3.369417        -0.438393         0.033682
 C         2.720339        -1.683597         0.636144
 O         1.295349        -1.087115         0.489875
 O         4.660249         0.156060         0.196949
 C         4.012691         1.470097         0.369664
 C         2.750203         0.627866         0.788135
 H        -0.145717         1.410587         0.896986
 H         0.226637         1.968113        -0.756181
 H        -0.561144         0.298896        -0.481846
 H         2.034162        -1.003716        -1.749871
 H         2.766467         0.730161        -1.796851
 H         2.817618        -2.665859         0.134184
 H         2.882872        -1.820769         1.697968
 H         4.591173         2.220857         1.055649
 H         3.944744         2.064888        -0.635869
 H         2.719123         0.622926         1.894719
