19
Iteration:   235
 C         0.207546         0.961930        -0.067718
 C         1.489653         0.215062        -0.078154
 C         2.570363         0.006498        -1.197729
 C         3.346335        -0.395486         0.071113
 C         2.653800        -1.653618         0.531395
 O         1.313266        -1.226622         0.472677
 O         4.656379         0.187150         0.167212
 C         3.977291         1.482067         0.355170
 C         2.611008         0.759344         0.820541
 H        -0.280857         0.805852         0.931522
 H         0.432038         1.980366        -0.228785
 H        -0.431147         0.576838        -0.819985
 H         2.155902        -1.009506        -1.653372
 H         2.960848         1.003288        -1.704818
 H         2.718180        -2.504700        -0.159624
 H         2.960105        -2.070520         1.497992
 H         4.435448         1.883694         1.353324
 H         3.994948         2.240077        -0.416426
 H         2.554870         0.723474         1.839411
