19
Iteration:  4818
 C         0.263659         1.090383        -0.103406
 C         1.484648         0.322808        -0.050841
 C         2.420924        -0.081436        -1.165608
 C         3.328513        -0.445988         0.040464
 C         2.633344        -1.749324         0.510094
 O         1.304993        -1.181053         0.568531
 O         4.665685         0.155873         0.092603
 C         4.028660         1.501792         0.409615
 C         2.681058         0.697813         0.801555
 H        -0.044310         1.331814         0.962566
 H         0.544535         1.926297        -0.817268
 H        -0.634423         0.543488        -0.497122
 H         2.228651        -0.971244        -1.762900
 H         2.814756         0.749588        -1.885528
 H         2.937904        -2.570143        -0.109694
 H         2.946858        -1.970741         1.547138
 H         4.413875         1.942777         1.382267
 H         3.930357         2.196284        -0.502052
 H         2.526737         0.697513         1.898134
