19
Iteration:  2018charge 0 multiplicity 1
 C         0.217029         1.048086        -0.232588
 C         1.520025         0.284716        -0.024169
 C         2.412107        -0.154414        -1.150244
 C         3.345497        -0.448746         0.059487
 C         2.701795        -1.672249         0.529588
 O         1.280807        -1.146437         0.459623
 O         4.711341         0.233279         0.181824
 C         4.019930         1.505454         0.425253
 C         2.669992         0.624666         0.874269
 H        -0.104520         1.353853         0.771416
 H         0.322284         1.962410        -0.743722
 H        -0.707930         0.526556        -0.554118
 H         1.848020        -0.878726        -1.683366
 H         2.814821         0.678440        -1.845647
 H         2.819978        -2.534858        -0.124354
 H         2.956420        -2.078596         1.543410
 H         4.461684         2.244321         1.318485
 H         3.945624         2.032119        -0.604644
 H         2.424746         0.561898         1.977236
