19
Iteration:  4656
 C         0.225483         1.074725        -0.130961
 C         1.527423         0.299162        -0.077766
 C         2.383311        -0.067614        -1.216592
 C         3.364626        -0.474757         0.103953
 C         2.648675        -1.677145         0.545383
 O         1.331517        -1.136051         0.551897
 O         4.715382         0.170702         0.054513
 C         3.940709         1.419950         0.467905
 C         2.694765         0.686325         0.822536
 H        -0.102203         1.244016         0.862512
 H         0.361136         1.889275        -0.844619
 H        -0.621856         0.508893        -0.509549
 H         1.923100        -0.766356        -1.905959
 H         3.003398         0.755854        -1.712945
 H         2.848507        -2.555570        -0.091509
 H         2.872593        -1.832022         1.624198
 H         4.281295         1.986170         1.326784
 H         3.830386         2.035073        -0.441922
 H         2.723771         0.559087         1.912297
