19
Iteration:  3886
 C         0.229124         0.954398        -0.208723
 C         1.555012         0.315558        -0.069066
 C         2.426510        -0.057174        -1.203875
 C         3.350432        -0.412826         0.131903
 C         2.645361        -1.631335         0.592004
 O         1.355798        -1.042874         0.614730
 O         4.623323         0.097048         0.031537
 C         4.047801         1.399435         0.468020
 C         2.649650         0.736918         0.762588
 H        -0.273935         0.888889         0.802202
 H         0.149142         2.056457        -0.575815
 H        -0.470588         0.293737        -0.895929
 H         2.060306        -0.859038        -1.913494
 H         2.679095         0.806482        -1.882511
 H         2.615197        -2.480280        -0.174695
 H         2.832185        -2.160675         1.534764
 H         4.433347         1.496345         1.486263
 H         4.191401         2.276574        -0.156575
 H         2.563038         0.667810         1.858183
