19
Iteration:  3340charge 0 multiplicity 1
 C         0.219761         1.140485        -0.158016
 C         1.429609         0.161298        -0.018151
 C         2.463661        -0.048135        -1.241516
 C         3.432357        -0.448794         0.031577
 C         2.703367        -1.746640         0.659526
 O         1.289883        -1.158708         0.521138
 O         4.690803         0.190820         0.080397
 C         3.930140         1.463913         0.443788
 C         2.683915         0.695271         0.828079
 H         0.034808         1.483129         0.825681
 H         0.513597         1.995710        -0.675018
 H        -0.599854         0.825435        -0.746573
 H         2.161487        -0.895224        -1.873312
 H         2.691679         0.895727        -1.825562
 H         2.726699        -2.655741         0.096095
 H         2.809535        -1.999714         1.664728
 H         4.497968         2.060176         1.140758
 H         3.882507         1.974173        -0.574425
 H         2.525447         0.696386         1.896922
