19
Iteration:  4344
 C         0.184119         0.978888        -0.112225
 C         1.494942         0.252265        -0.067482
 C         2.453711        -0.032457        -1.200813
 C         3.384575        -0.424430         0.023774
 C         2.643266        -1.622044         0.601521
 O         1.292169        -1.067086         0.574476
 O         4.722957         0.134295         0.134404
 C         3.971242         1.395330         0.379475
 C         2.655288         0.713974         0.756956
 H        -0.075629         1.231457         0.922370
 H         0.244402         1.938436        -0.624238
 H        -0.687514         0.395516        -0.568088
 H         2.127229        -0.863591        -1.792466
 H         2.923648         0.816291        -1.695015
 H         2.762579        -2.549513        -0.034146
 H         3.045988        -1.994027         1.581522
 H         4.605572         1.781153         1.197491
 H         4.041185         2.030140        -0.595728
 H         2.611390         0.511278         1.788879
