19
Iteration:  4949charge 0 multiplicity 1
 C         0.187290         1.073474        -0.069607
 C         1.423712         0.300630        -0.063501
 C         2.441641        -0.134317        -1.273622
 C         3.370880        -0.445053        -0.019390
 C         2.688113        -1.692692         0.616947
 O         1.239369        -1.054737         0.514242
 O         4.729200         0.168854         0.092460
 C         3.992941         1.447342         0.449227
 C         2.718103         0.605138         0.852593
 H        -0.240600         1.267854         0.884745
 H         0.375589         2.058003        -0.445997
 H        -0.291008         0.407484        -0.722671
 H         2.314467        -0.985031        -1.951006
 H         2.861687         0.868034        -1.585497
 H         2.651593        -2.611422         0.057676
 H         3.112256        -1.631403         1.632221
 H         4.607700         2.056340         1.176855
 H         3.735219         1.965241        -0.521264
 H         2.787497         0.432509         1.949490
