19
Iteration:   767
 C         0.042430         0.875255        -0.221739
 C         1.444100         0.219435        -0.100731
 C         2.457322        -0.067300        -1.178269
 C         3.333979        -0.355733         0.067816
 C         2.744906        -1.667935         0.481438
 O         1.312884        -1.085636         0.483220
 O         4.687486         0.174713         0.210537
 C         4.169630         1.415185         0.545438
 C         2.662282         0.834533         0.790948
 H        -0.449604         0.619684         0.819888
 H        -0.013208         1.932023        -0.419762
 H        -0.598548         0.229008        -0.791951
 H         2.120688        -0.832524        -1.887918
 H         2.683234         0.831034        -1.723054
 H         2.836505        -2.512221        -0.184194
 H         3.149653        -1.856202         1.430975
 H         4.557468         1.726647         1.582327
 H         4.252204         2.135667        -0.330096
 H         2.490273         0.773254         1.880383
