19
Iteration:   346
 C         0.137592         0.803324        -0.208554
 C         1.515960         0.313466        -0.070757
 C         2.419170         0.021193        -1.159535
 C         3.303847        -0.371849         0.077271
 C         2.692198        -1.633272         0.580466
 O         1.321636        -1.084973         0.428038
 O         4.702969         0.146727         0.134144
 C         4.098515         1.443297         0.467961
 C         2.683247         0.725793         0.883221
 H        -0.357955         0.638096         0.783046
 H         0.016276         1.815174        -0.433573
 H        -0.388908         0.173922        -0.913531
 H         2.154411        -0.872956        -1.897242
 H         2.526448         0.893314        -1.876495
 H         2.828822        -2.540352         0.025661
 H         2.888911        -1.820404         1.648356
 H         4.477169         1.928463         1.408920
 H         3.925057         2.150881        -0.389734
 H         2.622846         0.535848         1.903220
