19
Iteration:  2376
 C        -0.018162         0.899924        -0.259309
 C         1.528912         0.354423        -0.075265
 C         2.373356        -0.055225        -1.153369
 C         3.348501        -0.401799         0.023441
 C         2.697140        -1.614043         0.524947
 O         1.345053        -1.048047         0.614052
 O         4.706957         0.072723         0.148810
 C         4.149278         1.413468         0.469740
 C         2.732187         0.763517         0.833094
 H        -0.641062         1.036450         0.562463
 H        -0.091539         1.717010        -0.923820
 H        -0.442230         0.008355        -0.769060
 H         2.173699        -1.021525        -1.720538
 H         2.674460         0.813960        -1.770342
 H         2.724538        -2.388405        -0.229147
 H         2.788949        -1.981073         1.556531
 H         4.537577         1.922432         1.329856
 H         4.424855         2.224163        -0.374016
 H         2.577316         0.464315         1.875395
