19
Iteration:  3562
 C         0.049182         0.805495        -0.208831
 C         1.517100         0.397794        -0.084573
 C         2.469383        -0.001255        -1.143865
 C         3.325689        -0.444685         0.027521
 C         2.679458        -1.666690         0.636112
 O         1.313466        -0.960841         0.501130
 O         4.703088         0.019962         0.058026
 C         4.141690         1.443468         0.454849
 C         2.684334         0.758604         0.897558
 H        -0.476674         0.672316         0.748409
 H        -0.117147         1.867463        -0.618257
 H        -0.468990         0.018427        -0.816215
 H         1.823801        -0.664482        -1.834531
 H         2.856102         0.798065        -1.821880
 H         2.528461        -2.550430         0.079197
 H         3.011333        -1.869410         1.653448
 H         4.652336         2.029893         1.283008
 H         4.151657         2.059539        -0.550350
 H         2.665671         0.692263         2.080167
