19
Iteration:  1232
 C         0.070631         0.882384        -0.280514
 C         1.452573         0.290454        -0.026819
 C         2.472019        -0.085485        -1.202057
 C         3.376655        -0.422412         0.041911
 C         2.808011        -1.672037         0.540175
 O         1.244705        -1.031861         0.556001
 O         4.724122         0.156554         0.125617
 C         4.111140         1.461044         0.502243
 C         2.645012         0.704611         0.869964
 H        -0.531070         0.798513         0.664814
 H         0.193508         1.969943        -0.318964
 H        -0.679904         0.571612        -1.007107
 H         2.178656        -0.814244        -1.963127
 H         2.791129         0.796249        -1.798093
 H         2.696778        -2.516065        -0.216001
 H         2.823538        -1.973702         1.592401
 H         4.534403         1.883206         1.414683
 H         4.184416         2.072679        -0.400821
 H         2.368022         0.823443         1.886511
