19
Iteration:  3792
 C         0.194826         1.133795        -0.102120
 C         1.488007         0.189373        -0.047775
 C         2.496702        -0.141155        -1.220352
 C         3.445058        -0.510213        -0.026383
 C         2.710837        -1.763277         0.609255
 O         1.222133        -1.082879         0.549222
 O         4.670308         0.212139         0.149679
 C         3.966399         1.463159         0.426607
 C         2.676287         0.751464         0.784846
 H        -0.221018         1.244406         0.927898
 H         0.542366         2.080128        -0.588985
 H        -0.628953         0.823219        -0.781181
 H         2.041920        -0.908096        -1.941886
 H         2.814039         0.730165        -1.851198
 H         2.677559        -2.538579        -0.152438
 H         2.974701        -2.127578         1.624368
 H         4.646312         1.870170         1.237949
 H         3.973108         2.153936        -0.553624
 H         2.450576         0.633346         1.907192
