19
Iteration:  4386
 C         0.224325         1.046043        -0.125428
 C         1.508249         0.331422        -0.045516
 C         2.436530        -0.118998        -1.131656
 C         3.388359        -0.449875         0.076861
 C         2.672532        -1.660535         0.579196
 O         1.314099        -1.140102         0.516493
 O         4.677853         0.180744         0.065852
 C         4.005235         1.409083         0.370253
 C         2.681662         0.686567         0.814963
 H        -0.289427         1.118885         0.846984
 H         0.450670         2.124554        -0.274360
 H        -0.411838         0.572386        -1.000352
 H         1.862264        -0.887690        -1.593113
 H         2.748227         0.633164        -1.851052
 H         2.628000        -2.617134        -0.046221
 H         2.878302        -1.922768         1.630166
 H         4.184392         2.000641         1.287456
 H         3.950757         2.066069        -0.512672
 H         2.419253         0.843074         1.825882
