19
Iteration:  2463charge 0 multiplicity 1
 C         0.211709         0.998228        -0.109007
 C         1.497939         0.185284        -0.087318
 C         2.439624        -0.118606        -1.196059
 C         3.379810        -0.442508         0.007118
 C         2.670165        -1.697355         0.533688
 O         1.295351        -1.105795         0.567515
 O         4.702920         0.105250         0.233861
 C         3.970659         1.484098         0.369036
 C         2.648973         0.877379         0.794505
 H        -0.386210         1.177351         0.787444
 H         0.537448         1.998061        -0.405983
 H        -0.503440         0.742644        -0.946635
 H         2.226727        -1.103689        -1.752004
 H         2.852830         0.671662        -1.784142
 H         2.800133        -2.500096        -0.234495
 H         2.969866        -1.946521         1.579982
 H         4.464360         2.053649         1.088412
 H         4.114626         1.991072        -0.650843
 H         2.411879         0.990655         1.855718
