19
Iteration:   914
 C         0.105485         0.838836        -0.274209
 C         1.408653         0.281924         0.007988
 C         2.464260        -0.005847        -1.078320
 C         3.343701        -0.359787         0.089745
 C         2.714523        -1.685030         0.531497
 O         1.336406        -1.125022         0.470584
 O         4.708657         0.072451         0.081918
 C         4.103883         1.475565         0.499952
 C         2.663200         0.847316         0.829891
 H        -0.501382         0.468451         0.470235
 H         0.072440         1.962401        -0.339603
 H        -0.307901         0.299015        -1.151545
 H         2.150690        -0.726235        -1.804198
 H         2.693060         0.986000        -1.602756
 H         2.783601        -2.495057        -0.173516
 H         2.977573        -1.958264         1.559453
 H         4.686162         1.883804         1.460650
 H         4.113775         2.300667        -0.373780
 H         2.258259         0.911276         1.932729
