19
Iteration:  2646
 C         0.083494         0.881738        -0.251004
 C         1.504176         0.269382        -0.021341
 C         2.337518        -0.095278        -1.229861
 C         3.416694        -0.393816        -0.056864
 C         2.680945        -1.621647         0.640449
 O         1.281631        -0.976955         0.623434
 O         4.729409         0.090723         0.111058
 C         4.107084         1.456209         0.516370
 C         2.698684         0.735690         0.743045
 H        -0.395820         0.853946         0.742731
 H         0.192838         1.906029        -0.497417
 H        -0.448592         0.182634        -0.990675
 H         2.081625        -0.856528        -2.019538
 H         2.696914         0.807375        -1.630329
 H         2.574777        -2.478989         0.027778
 H         2.982232        -1.777089         1.645959
 H         4.556953         1.688310         1.530448
 H         4.249457         2.168487        -0.337649
 H         2.679370         0.412417         1.784276
