19
Iteration:   403charge 0 multiplicity 1
 C         0.214042         0.985519        -0.156219
 C         1.484291         0.196780        -0.035556
 C         2.460905        -0.164640        -1.253728
 C         3.359652        -0.412043         0.071357
 C         2.749768        -1.687160         0.541064
 O         1.373940        -1.125553         0.450493
 O         4.682407         0.201596         0.133155
 C         3.949495         1.500884         0.519494
 C         2.595897         0.776824         0.854018
 H        -0.305650         1.051132         0.715899
 H         0.657257         1.986458        -0.372071
 H        -0.454917         0.765028        -1.001898
 H         1.768349        -1.083034        -1.632788
 H         2.682424         0.747173        -1.772495
 H         3.005056        -2.435593        -0.231177
 H         2.870760        -2.122279         1.569436
 H         4.198950         2.036143         1.341936
 H         3.881075         2.260967        -0.294950
 H         2.320598         0.729772         1.949212
