19
Iteration:  2208
 C         0.030595         0.871000        -0.186223
 C         1.482642         0.283776        -0.119393
 C         2.498501         0.036599        -1.198602
 C         3.406571        -0.409892        -0.007127
 C         2.715501        -1.630290         0.645443
 O         1.254761        -1.055025         0.567560
 O         4.672384         0.044302         0.101735
 C         4.070227         1.403678         0.489953
 C         2.709702         0.796928         0.812524
 H        -0.458338         0.909808         0.786963
 H         0.004689         1.864766        -0.644009
 H        -0.540343         0.193794        -0.705799
 H         2.471386        -0.700067        -2.036341
 H         2.973537         0.884914        -1.554042
 H         2.749489        -2.538074         0.005477
 H         3.036179        -1.836519         1.631079
 H         4.564115         2.036894         1.240272
 H         4.151399         2.050868        -0.470176
 H         2.534762         0.592094         1.895721
