19
Iteration:  1977
 C         0.096326         0.974623        -0.210249
 C         1.471534         0.298025        -0.174414
 C         2.533120        -0.033580        -1.155469
 C         3.432712        -0.433826         0.072265
 C         2.701230        -1.642803         0.571950
 O         1.272958        -1.097249         0.582809
 O         4.670688         0.149307         0.109017
 C         4.003565         1.383272         0.469649
 C         2.644561         0.705756         0.805022
 H        -0.150877         1.066031         0.843478
 H         0.254136         1.967043        -0.673538
 H        -0.676352         0.302613        -0.612432
 H         2.339067        -0.680677        -1.993078
 H         2.903066         0.939101        -1.672841
 H         2.636439        -2.587224         0.014353
 H         3.093622        -1.815605         1.584957
 H         4.651901         1.731791         1.257973
 H         3.901815         2.225073        -0.248786
 H         2.637851         0.509344         1.980412
