19
Iteration:  3507
 C         0.194141         1.090648        -0.162790
 C         1.495559         0.284332        -0.101012
 C         2.408045        -0.127805        -1.232808
 C         3.342281        -0.405320         0.043793
 C         2.714642        -1.645361         0.559270
 O         1.373998        -1.142601         0.581606
 O         4.629823         0.163297         0.152361
 C         4.029486         1.356768         0.479150
 C         2.682131         0.716643         0.815946
 H        -0.144610         1.418221         0.822160
 H         0.437384         1.920351        -0.874309
 H        -0.647259         0.629026        -0.735701
 H         1.998974        -1.074792        -1.741636
 H         2.477449         0.717836        -1.935226
 H         2.856970        -2.408509        -0.188303
 H         3.030472        -1.993986         1.547564
 H         4.452078         2.060359         1.261287
 H         3.805628         1.958920        -0.576135
 H         2.568170         0.708173         1.960259
