19
Iteration:  3921
 C         0.238993         1.100204        -0.147297
 C         1.479022         0.221491         0.007606
 C         2.506130        -0.073611        -1.235307
 C         3.386054        -0.424936         0.052940
 C         2.629846        -1.662737         0.638500
 O         1.221271        -1.144509         0.510342
 O         4.648189         0.186224         0.161967
 C         4.050611         1.460022         0.282624
 C         2.742630         0.628220         0.842088
 H        -0.344524         1.101965         0.812700
 H         0.460259         2.212753        -0.332974
 H        -0.462608         0.583265        -0.929905
 H         2.251917        -1.054633        -1.812598
 H         2.768218         0.881068        -1.762654
 H         2.633788        -2.586983        -0.116488
 H         2.867402        -1.880652         1.711108
 H         4.388252         2.088516         1.078767
 H         3.773412         2.132746        -0.562133
 H         2.641862         0.377146         1.960907
