19
Iteration:  1976
 C         0.095314         0.975363        -0.207829
 C         1.471080         0.298361        -0.180256
 C         2.526515        -0.029793        -1.154791
 C         3.430246        -0.433896         0.064677
 C         2.705836        -1.646218         0.574294
 O         1.269416        -1.093344         0.581382
 O         4.669346         0.147435         0.110561
 C         4.003016         1.381308         0.469984
 C         2.654401         0.707522         0.807496
 H        -0.195281         1.058876         0.826380
 H         0.221688         1.941673        -0.665363
 H        -0.661225         0.291457        -0.628787
 H         2.363217        -0.692476        -1.976098
 H         2.901533         0.944715        -1.672191
 H         2.669446        -2.592851         0.035544
 H         3.079436        -1.842257         1.602321
 H         4.684035         1.738691         1.306315
 H         3.902206         2.238552        -0.271163
 H         2.663110         0.524762         1.983399
