19
Iteration:  1679charge 0 multiplicity 1
 C         0.120309         0.909923        -0.202268
 C         1.493296         0.277099        -0.108358
 C         2.456387         0.022310        -1.183857
 C         3.347608        -0.446026         0.049887
 C         2.644043        -1.667539         0.606245
 O         1.320680        -1.112230         0.508064
 O         4.726032         0.116779         0.167227
 C         4.006392         1.481621         0.489590
 C         2.726455         0.731606         0.811824
 H        -0.390770         1.337550         0.712253
 H         0.166503         1.677485        -0.987776
 H        -0.583588         0.179517        -0.766822
 H         2.092422        -0.643710        -1.970652
 H         2.923254         0.881032        -1.710956
 H         2.645169        -2.584394        -0.020163
 H         2.893003        -1.868889         1.663053
 H         4.589413         1.998601         1.220512
 H         4.110552         2.054631        -0.370427
 H         2.563972         0.694292         1.969309
