19
Iteration:  3613
 C         0.262551         1.072805        -0.153242
 C         1.459494         0.215025        -0.060913
 C         2.470395        -0.105229        -1.244464
 C         3.346045        -0.436664         0.063049
 C         2.678490        -1.709444         0.577778
 O         1.303219        -1.074953         0.618182
 O         4.679170         0.171976         0.123736
 C         3.920358         1.456402         0.379733
 C         2.694106         0.674076         0.797723
 H        -0.320973         1.222810         0.762931
 H         0.560871         2.111946        -0.350702
 H        -0.369962         0.595180        -0.931702
 H         2.243402        -0.921613        -2.008620
 H         2.883063         0.810616        -1.695226
 H         2.663207        -2.606527        -0.131557
 H         2.897510        -2.023090         1.603754
 H         4.473561         1.892508         1.228480
 H         3.821373         2.196748        -0.440922
 H         2.738609         0.672036         1.876413
