19
Iteration:  1681charge 0 multiplicity 1
 C         0.105310         0.926898        -0.202466
 C         1.506825         0.259060        -0.112252
 C         2.467595         0.039599        -1.199115
 C         3.355954        -0.457203         0.056333
 C         2.644156        -1.681052         0.626690
 O         1.317566        -1.118071         0.515798
 O         4.726132         0.117499         0.160473
 C         4.006013         1.491423         0.491267
 C         2.714463         0.736307         0.810047
 H        -0.369093         1.357014         0.710108
 H         0.182766         1.680918        -0.962412
 H        -0.557243         0.215976        -0.784966
 H         2.076192        -0.657478        -1.988370
 H         2.911553         0.833563        -1.654079
 H         2.561657        -2.537014        -0.048977
 H         2.964723        -1.881974         1.584925
 H         4.483787         2.034014         1.235077
 H         4.139730         2.055543        -0.391188
 H         2.594287         0.634886         1.933979
