19
Iteration:  4120
 C         0.096990         0.957432        -0.230673
 C         1.514577         0.325481        -0.020285
 C         2.417492        -0.057913        -1.158127
 C         3.367869        -0.383637        -0.007176
 C         2.601124        -1.617404         0.599950
 O         1.268298        -1.120084         0.591303
 O         4.728881         0.101001         0.088075
 C         4.118989         1.429257         0.439415
 C         2.752807         0.723769         0.851546
 H        -0.562251         1.090271         0.671865
 H         0.123636         1.887545        -0.835832
 H        -0.504059         0.270860        -0.839415
 H         2.177624        -0.744540        -1.934312
 H         2.603780         0.847242        -1.772748
 H         2.723985        -2.491047         0.067794
 H         2.992687        -1.941095         1.497722
 H         4.732791         1.886087         1.216983
 H         4.022317         1.952771        -0.486834
 H         2.587699         0.532972         1.950158
