19
Iteration:  4274
 C         0.128588         0.883052        -0.244592
 C         1.471688         0.358853        -0.067041
 C         2.429606         0.029356        -1.205733
 C         3.288698        -0.471875        -0.024095
 C         2.657880        -1.709852         0.624181
 O         1.358037        -1.073936         0.671179
 O         4.689509         0.113715         0.070530
 C         4.123769         1.420360         0.422589
 C         2.702880         0.750815         0.814951
 H        -0.389733         1.050942         0.782892
 H         0.197947         1.999704        -0.584077
 H        -0.556208         0.310488        -0.954846
 H         1.989185        -0.697855        -1.908707
 H         2.818009         1.004763        -1.591022
 H         2.637156        -2.645255        -0.100034
 H         2.970716        -1.934786         1.722930
 H         4.539173         1.811901         1.386265
 H         4.062899         2.194744        -0.325119
 H         2.624817         0.647635         1.957430
