19
Iteration:  1699
 C         0.187658         1.012286        -0.243211
 C         1.441972         0.257794        -0.050390
 C         2.559881        -0.062663        -1.243650
 C         3.381577        -0.409351         0.037606
 C         2.702204        -1.716238         0.562879
 O         1.282654        -1.099120         0.617015
 O         4.679942         0.203097         0.158926
 C         3.972704         1.416100         0.435653
 C         2.638395         0.659016         0.789999
 H        -0.168147         1.175745         0.800531
 H         0.309651         2.023702        -0.679545
 H        -0.689070         0.498975        -0.725961
 H         2.500878        -0.742787        -2.080784
 H         2.807560         0.991703        -1.702122
 H         2.833077        -2.625050        -0.057358
 H         2.835776        -2.011602         1.695907
 H         4.468672         1.820205         1.408950
 H         3.947764         2.197098        -0.338977
 H         2.427695         0.631716         1.895551
