19
Iteration:  1477charge 0 multiplicity 1
 C         0.137870         0.836912        -0.248321
 C         1.477476         0.315568        -0.110139
 C         2.519392         0.060555        -1.128515
 C         3.347595        -0.405040         0.048913
 C         2.637962        -1.663773         0.594778
 O         1.300370        -1.098200         0.542883
 O         4.692549         0.139793         0.094447
 C         4.052327         1.412288         0.471288
 C         2.688536         0.692769         0.856963
 H        -0.348828         1.210526         0.632849
 H         0.131009         1.769743        -0.838707
 H        -0.506031         0.213539        -0.871528
 H         2.134146        -0.700134        -1.900475
 H         2.920708         0.965349        -1.455064
 H         2.637497        -2.537956        -0.015521
 H         2.951810        -1.786549         1.636069
 H         4.428286         1.946673         1.347455
 H         4.048966         2.092377        -0.344148
 H         2.671815         0.676110         1.888959
