19
Iteration:  1695
 C         0.151069         1.005610        -0.266409
 C         1.455900         0.267469        -0.021888
 C         2.552794        -0.028970        -1.270538
 C         3.410936        -0.417232         0.054043
 C         2.688910        -1.728950         0.592864
 O         1.280017        -1.100644         0.602574
 O         4.681568         0.181171         0.155096
 C         4.000266         1.435074         0.434168
 C         2.629890         0.675542         0.792149
 H        -0.151013         1.167607         0.754206
 H         0.322261         2.013438        -0.665161
 H        -0.664149         0.439302        -0.596890
 H         2.446767        -0.742777        -2.106585
 H         2.809626         0.981705        -1.644353
 H         2.815261        -2.649523         0.004372
 H         2.915796        -2.089814         1.608439
 H         4.321963         1.843047         1.444324
 H         3.932502         2.230104        -0.414640
 H         2.476850         0.523984         1.818592
