19
Iteration:  2265charge 0 multiplicity 1
 C         0.126757         0.959449        -0.233500
 C         1.447755         0.259411        -0.099793
 C         2.505429         0.013105        -1.155967
 C         3.419250        -0.443543         0.076162
 C         2.647709        -1.673374         0.586477
 O         1.368896        -1.057257         0.662516
 O         4.664416         0.134019         0.069445
 C         4.009417         1.399171         0.430913
 C         2.636767         0.707948         0.799549
 H        -0.481202         0.887726         0.667889
 H         0.442229         1.941448        -0.305982
 H        -0.459317         0.779831        -1.113558
 H         2.560248        -0.763877        -1.892020
 H         2.963247         0.884189        -1.756781
 H         2.544135        -2.558744        -0.067816
 H         2.946058        -1.984122         1.571757
 H         4.334123         1.945477         1.254399
 H         4.061456         1.997728        -0.620769
 H         2.328412         0.484830         1.807382
