19
Iteration:  3344
 C         0.215579         1.128324        -0.144605
 C         1.437453         0.202334        -0.003020
 C         2.456101        -0.055288        -1.209968
 C         3.434580        -0.466363         0.072170
 C         2.703617        -1.718925         0.614863
 O         1.289271        -1.160479         0.504247
 O         4.657435         0.202895         0.075862
 C         3.968308         1.465973         0.412868
 C         2.691189         0.669404         0.838228
 H        -0.108953         1.507358         0.842874
 H         0.582131         1.974735        -0.828888
 H        -0.630711         0.778381        -0.792061
 H         2.225649        -0.892766        -1.888967
 H         2.749840         0.742585        -1.827346
 H         2.721414        -2.710201         0.058177
 H         2.925128        -1.973342         1.730372
 H         4.444473         2.068027         1.172324
 H         3.899142         1.905641        -0.538222
 H         2.450624         0.720041         1.921126
