19
Iteration:  1926
 C         0.036937         0.863882        -0.257238
 C         1.456705         0.323528         0.003025
 C         2.534696        -0.015990        -1.230379
 C         3.324348        -0.379632         0.097236
 C         2.698081        -1.641026         0.556635
 O         1.293498        -1.051648         0.541951
 O         4.698546         0.056458         0.123787
 C         4.114091         1.430544         0.476481
 C         2.673401         0.768281         0.826144
 H        -0.576063         0.671938         0.684992
 H         0.076359         2.025854        -0.340801
 H        -0.418803         0.314967        -1.094986
 H         2.227427        -0.753095        -2.015397
 H         2.968119         0.884600        -1.684322
 H         2.663347        -2.594794        -0.043768
 H         3.142883        -1.967390         1.506913
 H         4.593578         1.990696         1.347132
 H         4.041791         2.022997        -0.439704
 H         2.637519         0.642486         1.864546
