19
Iteration:   413charge 0 multiplicity 1
 C         0.238603         0.962410        -0.206566
 C         1.513768         0.248712        -0.011362
 C         2.420300        -0.115484        -1.173374
 C         3.311533        -0.394205         0.040434
 C         2.807059        -1.731677         0.571887
 O         1.269495        -1.119770         0.434770
 O         4.706615         0.250428         0.122234
 C         3.913353         1.470757         0.527029
 C         2.655593         0.732600         0.849591
 H        -0.229619         1.032274         0.740172
 H         0.422798         1.974369        -0.566514
 H        -0.396648         0.427156        -0.933139
 H         2.021282        -0.900238        -1.951070
 H         2.727660         0.675796        -1.849021
 H         2.796216        -2.611310        -0.024840
 H         3.111382        -1.842588         1.609836
 H         4.429040         1.787336         1.404036
 H         3.940805         2.242802        -0.296155
 H         2.524596         0.557905         1.879029
