19
Iteration:   416
 C         0.236791         0.960225        -0.212896
 C         1.509580         0.265815        -0.034760
 C         2.409048        -0.086670        -1.171897
 C         3.344551        -0.408525         0.033571
 C         2.799125        -1.708052         0.572805
 O         1.257085        -1.137026         0.451690
 O         4.688037         0.257990         0.117395
 C         3.928988         1.473085         0.527490
 C         2.663894         0.705799         0.846030
 H        -0.286305         1.029814         0.707602
 H         0.370518         2.001475        -0.614775
 H        -0.400468         0.358443        -0.867731
 H         2.138328        -0.916801        -1.902846
 H         2.814445         0.709451        -1.812812
 H         2.753420        -2.691309         0.000727
 H         3.109095        -1.830464         1.646993
 H         4.448532         1.790862         1.368601
 H         3.945804         2.195709        -0.255950
 H         2.567461         0.509852         1.995190
