19
Iteration:  1057charge 0 multiplicity 1
 C         0.043099         0.830348        -0.283194
 C         1.464705         0.303859        -0.064929
 C         2.493047        -0.046706        -1.194346
 C         3.387704        -0.349635         0.045543
 C         2.649311        -1.656392         0.515366
 O         1.387061        -1.098415         0.623817
 O         4.688967         0.094475         0.069206
 C         4.063027         1.477359         0.546668
 C         2.671319         0.761773         0.859748
 H        -0.589434         0.852421         0.583948
 H         0.106125         1.928289        -0.505997
 H        -0.459284         0.496652        -1.198292
 H         2.177075        -0.861383        -1.903201
 H         2.834461         0.848588        -1.636602
 H         2.805251        -2.440552        -0.152147
 H         2.985370        -1.964487         1.450001
 H         4.528689         1.749577         1.476944
 H         4.137529         2.275635        -0.091881
 H         2.284285         0.837770         1.889349
