19
Iteration:  1013charge 0 multiplicity 1
 C         0.119716         0.952423        -0.126099
 C         1.406871         0.299196        -0.058111
 C         2.525295         0.054445        -1.238939
 C         3.410355        -0.397153         0.119428
 C         2.680595        -1.677169         0.594328
 O         1.364265        -1.152213         0.441925
 O         4.702688         0.122039         0.162781
 C         3.968666         1.458922         0.419207
 C         2.637976         0.701531         0.824847
 H        -0.279230         1.230043         0.804515
 H         0.075768         1.777687        -0.858848
 H        -0.473154         0.194656        -0.640833
 H         2.353987        -0.890772        -1.768602
 H         2.857009         0.843063        -1.900525
 H         2.784431        -2.563906         0.066770
 H         2.987463        -1.867197         1.579146
 H         4.374846         2.027260         1.270516
 H         4.059169         2.020109        -0.459818
 H         2.484744         0.514910         1.913282
