19
Iteration:  1090charge 0 multiplicity 1
 C         0.154630         0.889070        -0.238901
 C         1.477451         0.256544        -0.015591
 C         2.468379        -0.006223        -1.186753
 C         3.331901        -0.401282         0.062145
 C         2.661063        -1.660934         0.599308
 O         1.345695        -1.100343         0.517043
 O         4.675152         0.188330         0.107114
 C         4.062945         1.495858         0.445539
 C         2.681499         0.635520         0.858370
 H        -0.641898         0.700764         0.497730
 H         0.439085         1.981066        -0.380906
 H        -0.244072         0.455337        -1.191184
 H         2.061779        -0.746313        -1.925397
 H         2.683986         0.837214        -1.766692
 H         2.882816        -2.528272         0.020847
 H         2.888729        -1.804173         1.602251
 H         4.494091         1.831472         1.371823
 H         3.989222         2.190186        -0.303935
 H         2.349849         0.681273         1.897936
