19
Iteration:   288
 C         0.183546         0.885180        -0.176171
 C         1.505145         0.256583        -0.021451
 C         2.483107        -0.045142        -1.290951
 C         3.323552        -0.395090        -0.083320
 C         2.654412        -1.647892         0.527498
 O         1.313526        -1.092000         0.584538
 O         4.683416         0.196648         0.132125
 C         3.964788         1.461901         0.577933
 C         2.730465         0.655458         0.859452
 H        -0.231513         1.356563         0.740961
 H         0.331333         1.611709        -1.025196
 H        -0.469000         0.158367        -0.672040
 H         2.260753        -0.782646        -2.071165
 H         2.712952         0.997455        -1.667318
 H         2.652780        -2.537817        -0.046368
 H         3.057822        -1.795244         1.483214
 H         4.446101         2.089369         1.491135
 H         3.854944         2.259820        -0.195421
 H         2.581731         0.424019         1.878817
