19
Iteration:  3873charge 0 multiplicity 1
 C         0.132243         0.885297        -0.195922
 C         1.477001         0.304404        -0.095503
 C         2.452299        -0.023370        -1.247602
 C         3.278182        -0.403340        -0.009666
 C         2.677025        -1.685560         0.570985
 O         1.311618        -1.026714         0.643539
 O         4.621239         0.075112         0.049609
 C         4.154770         1.369416         0.514564
 C         2.689050         0.831852         0.870081
 H        -0.434775         1.029556         0.782555
 H         0.320191         1.877612        -0.697547
 H        -0.402520         0.161669        -0.912153
 H         2.223314        -0.792187        -1.938272
 H         2.990293         0.851460        -1.613051
 H         2.797640        -2.549990        -0.049820
 H         3.078296        -1.773718         1.565584
 H         4.699335         1.791118         1.391285
 H         4.379366         2.031733        -0.286717
 H         2.378649         0.763843         1.881817
