19
Iteration:  1433charge 0 multiplicity 1
 C         0.269277         1.041079        -0.205258
 C         1.468453         0.178804        -0.042285
 C         2.460118        -0.122783        -1.251350
 C         3.387989        -0.400139         0.085459
 C         2.694146        -1.650500         0.544148
 O         1.257324        -1.159409         0.540494
 O         4.668806         0.222973         0.173225
 C         4.010785         1.452068         0.450785
 C         2.612568         0.731624         0.786128
 H        -0.277715         0.891081         0.785241
 H         0.480827         2.138752        -0.239088
 H        -0.469027         0.676973        -0.975570
 H         2.304847        -1.119273        -1.806403
 H         2.828378         0.822457        -1.654092
 H         2.779778        -2.390322        -0.207878
 H         2.979196        -1.906734         1.583981
 H         4.559793         1.832259         1.318002
 H         4.059267         2.136429        -0.366076
 H         2.381613         0.647204         1.827438
