19
Iteration:  4789
 C         0.204875         1.005557        -0.175601
 C         1.458926         0.333405        -0.031822
 C         2.412417         0.002684        -1.219147
 C         3.352621        -0.473458        -0.015547
 C         2.712781        -1.690170         0.568278
 O         1.236262        -1.056100         0.585665
 O         4.776845         0.133016         0.056756
 C         3.950419         1.403050         0.422570
 C         2.724636         0.638968         0.909435
 H        -0.210390         1.178145         0.786318
 H         0.429270         2.002951        -0.528997
 H        -0.592568         0.481404        -0.821340
 H         2.097020        -0.886366        -1.764784
 H         2.881862         0.836660        -1.696421
 H         2.933366        -2.589627        -0.018362
 H         3.014844        -1.756450         1.608015
 H         4.370736         1.887923         1.228131
 H         3.692306         1.952347        -0.454739
 H         2.662567         0.530453         1.980622
