19
Iteration:  4488
 C         0.158705         0.938506        -0.103214
 C         1.463558         0.291583        -0.079736
 C         2.453053         0.024839        -1.306157
 C         3.346967        -0.524489         0.069017
 C         2.597770        -1.667898         0.616982
 O         1.285084        -1.106450         0.548861
 O         4.721548         0.144465         0.089613
 C         4.026601         1.483514         0.413411
 C         2.761765         0.701917         0.846699
 H        -0.064303         1.398877         0.927534
 H         0.423056         1.810087        -0.795020
 H        -0.763941         0.421827        -0.473368
 H         2.247751        -0.775115        -2.033118
 H         2.961886         0.921317        -1.683651
 H         2.789291        -2.657372         0.077678
 H         2.887453        -1.921315         1.708221
 H         4.588974         1.923384         1.242733
 H         3.799227         2.092496        -0.520411
 H         2.610748         0.707858         1.944379
