19
Iteration:   322charge 0 multiplicity 1
 C        -0.025275         0.864184        -0.195777
 C         1.458285         0.329679        -0.055327
 C         2.497716        -0.027010        -1.191101
 C         3.301162        -0.384504         0.082046
 C         2.699220        -1.648012         0.535657
 O         1.394177        -1.170997         0.519492
 O         4.692920         0.128144         0.048977
 C         4.140796         1.425519         0.572778
 C         2.662003         0.853862         0.812566
 H        -0.717863         1.082731         0.692215
 H         0.008668         1.746304        -0.800819
 H        -0.501929         0.099829        -0.788017
 H         2.308603        -0.825025        -1.925991
 H         3.002442         0.800535        -1.795456
 H         2.717550        -2.481868        -0.097338
 H         3.127640        -1.897599         1.477293
 H         4.553558         1.469098         1.685049
 H         4.127290         2.368454         0.009517
 H         2.464830         0.868183         1.812360
