19
Iteration:  2149charge 0 multiplicity 1
 C         0.133513         1.078722        -0.228543
 C         1.491745         0.234205        -0.069280
 C         2.409767        -0.122271        -1.222688
 C         3.450021        -0.409444         0.099774
 C         2.666983        -1.680075         0.561071
 O         1.325366        -1.139746         0.500257
 O         4.679680         0.214140         0.112055
 C         3.984142         1.488273         0.415502
 C         2.696665         0.655696         0.983030
 H        -0.173367         1.385069         0.778427
 H         0.248061         2.001796        -0.845087
 H        -0.695140         0.549533        -0.847169
 H         2.249718        -1.035635        -1.728714
 H         2.961754         0.659909        -1.872828
 H         2.687871        -2.560557        -0.135155
 H         2.878594        -2.078756         1.640143
 H         4.625000         1.984828         1.264065
 H         3.805209         2.016179        -0.486695
 H         2.626676         0.456363         2.067769
