19
Iteration:  1203
 C         0.149999         0.780864        -0.310495
 C         1.527216         0.357424         0.004629
 C         2.493373         0.008351        -1.182543
 C         3.309786        -0.387852         0.066264
 C         2.659992        -1.607940         0.588810
 O         1.313064        -1.127398         0.562817
 O         4.648292         0.156500         0.045952
 C         4.109931         1.407655         0.503215
 C         2.650578         0.727336         0.866690
 H        -0.404076         1.062404         0.684507
 H         0.284161         1.789475        -0.741820
 H        -0.564802         0.176067        -0.941612
 H         2.110188        -0.648422        -1.993431
 H         2.958399         1.030545        -1.578709
 H         2.770246        -2.335162        -0.181763
 H         2.749680        -1.949119         1.653089
 H         4.482290         1.713768         1.438475
 H         4.212877         2.124867        -0.353484
 H         2.498149         0.647894         1.933079
