19
Iteration:  4510
 C         0.215099         1.087339        -0.134935
 C         1.503550         0.285201        -0.002393
 C         2.484822        -0.112927        -1.140092
 C         3.385256        -0.448314        -0.000813
 C         2.715141        -1.702058         0.596317
 O         1.287885        -1.136478         0.497678
 O         4.669027         0.172552         0.064869
 C         3.954821         1.420430         0.416583
 C         2.622224         0.747856         0.808661
 H        -0.011243         1.388772         0.949508
 H         0.384667         2.091397        -0.631762
 H        -0.673673         0.515325        -0.527528
 H         2.168628        -0.950924        -1.801982
 H         2.807826         0.791116        -1.621700
 H         2.926931        -2.602575        -0.037502
 H         2.882524        -2.059163         1.651685
 H         4.506780         1.844603         1.248859
 H         3.985416         1.924254        -0.553366
 H         2.427675         0.657861         1.895324
