19
Iteration:  4470charge 0 multiplicity 1
 C         0.149759         0.933660        -0.121541
 C         1.495732         0.300642        -0.045693
 C         2.448603        -0.043148        -1.152925
 C         3.394230        -0.375059        -0.018004
 C         2.642724        -1.639329         0.575863
 O         1.289819        -1.027180         0.529981
 O         4.720069         0.092809         0.113233
 C         4.092758         1.361728         0.416884
 C         2.665842         0.758684         0.809365
 H        -0.298105         0.987597         0.840755
 H        -0.085309         1.676561        -0.851800
 H        -0.383169         0.105561        -0.483101
 H         2.027807        -0.854312        -1.842893
 H         2.631114         0.808492        -1.738178
 H         2.443269        -2.521828        -0.045447
 H         2.969226        -1.799134         1.609963
 H         4.495859         1.906058         1.303319
 H         4.054802         2.088766        -0.442078
 H         2.605040         0.499601         1.886394
