19
Iteration:  3023charge 0 multiplicity 1
 C         0.218757         0.993928        -0.115443
 C         1.525421         0.253363        -0.124769
 C         2.437345        -0.113946        -1.214288
 C         3.386434        -0.435544         0.029049
 C         2.584661        -1.700663         0.503942
 O         1.283038        -1.036813         0.575681
 O         4.761135         0.208750         0.216163
 C         3.907878         1.445543         0.378108
 C         2.747923         0.685677         0.828796
 H        -0.079127         1.445295         0.902781
 H         0.504756         1.947998        -0.556875
 H        -0.680672         0.363420        -0.462695
 H         2.281032        -1.001090        -1.918321
 H         2.606763         0.740583        -1.880165
 H         2.567580        -2.682957         0.082844
 H         2.761928        -1.958085         1.555637
 H         4.445010         2.036298         1.016814
 H         3.808840         1.744989        -0.689471
 H         2.668145         0.585121         1.954808
