19
Iteration:  3709charge 0 multiplicity 1
 C         0.090554         0.802134        -0.216417
 C         1.502416         0.288713        -0.038471
 C         2.390812         0.000950        -1.191436
 C         3.325077        -0.381807        -0.016458
 C         2.572181        -1.680512         0.469934
 O         1.296904        -0.936002         0.619663
 O         4.755288         0.088170         0.184085
 C         4.138845         1.390398         0.451070
 C         2.766855         0.780726         0.821264
 H        -0.519450         0.862190         0.681608
 H        -0.062108         1.776161        -0.555371
 H        -0.297348        -0.024830        -0.796272
 H         2.134770        -0.885432        -1.674483
 H         2.666416         0.819820        -1.782199
 H         2.485785        -2.590103        -0.168468
 H         3.099172        -1.882853         1.405027
 H         4.746613         1.783880         1.259126
 H         4.209376         2.144244        -0.319680
 H         2.552069         0.671450         1.837527
