19
Iteration:  2341charge 0 multiplicity 1
 C         0.184510         0.895021        -0.164412
 C         1.482010         0.267406        -0.103436
 C         2.563002         0.019766        -1.178507
 C         3.320268        -0.417667        -0.022025
 C         2.587914        -1.669888         0.611985
 O         1.317890        -1.083713         0.604222
 O         4.634537         0.096356         0.159221
 C         4.084591         1.432902         0.396603
 C         2.692956         0.803397         0.801038
 H        -0.188691         1.261030         0.783822
 H         0.068274         1.567170        -0.936275
 H        -0.374967         0.007566        -0.499292
 H         2.232997        -0.625626        -1.962770
 H         2.772271         1.075031        -1.654404
 H         2.763679        -2.519501        -0.092819
 H         2.956046        -2.002534         1.557300
 H         4.531006         1.775501         1.256034
 H         3.949403         2.191896        -0.479209
 H         2.357508         0.605625         1.818253
