19
Iteration:  4068
 C         0.215494         1.063264        -0.039421
 C         1.527349         0.253726        -0.097576
 C         2.578120        -0.083975        -1.287660
 C         3.345220        -0.417714         0.014929
 C         2.598716        -1.672420         0.603712
 O         1.250528        -1.062978         0.575177
 O         4.686995         0.176969         0.153729
 C         3.946898         1.380062         0.329076
 C         2.662571         0.673794         0.800927
 H        -0.173641         0.945984         0.950338
 H         0.412015         2.077714        -0.374575
 H        -0.575416         0.831994        -0.730264
 H         2.247208        -1.035598        -1.665446
 H         3.268345         0.514352        -1.952139
 H         2.842145        -2.742665         0.100681
 H         2.940980        -1.834464         1.755384
 H         4.492768         1.982008         1.168343
 H         3.828344         2.017773        -0.607765
 H         2.508551         0.569485         1.899971
