19
Iteration:  2689charge 0 multiplicity 1
 C         0.182753         0.849427        -0.276094
 C         1.500010         0.272167        -0.015230
 C         2.485054         0.036896        -1.095975
 C         3.316521        -0.431365         0.141043
 C         2.688159        -1.682956         0.544750
 O         1.305349        -1.009197         0.611308
 O         4.614867         0.044916        -0.012140
 C         4.080819         1.462381         0.430758
 C         2.715828         0.791680         0.833113
 H        -0.348869         1.302518         0.551917
 H         0.099877         1.497961        -1.098160
 H        -0.505874         0.009570        -0.584931
 H         2.108408        -0.732512        -1.827747
 H         2.628644         0.945599        -1.591844
 H         2.659516        -2.475082        -0.210757
 H         2.904168        -1.951532         1.579133
 H         4.649228         1.620992         1.461302
 H         4.165866         2.198690        -0.436002
 H         2.575691         0.943423         1.920446
