19
Iteration:  3554
 C         0.099478         0.783781        -0.198588
 C         1.502766         0.379857        -0.085789
 C         2.454837        -0.005599        -1.184028
 C         3.322163        -0.402423         0.017825
 C         2.598537        -1.645503         0.626050
 O         1.302030        -0.975905         0.513117
 O         4.713720         0.076135         0.063357
 C         4.124158         1.395735         0.445308
 C         2.704397         0.745118         0.906940
 H        -0.121780         0.686980         0.867199
 H        -0.181151         1.715985        -0.685960
 H        -0.452042         0.052789        -0.762360
 H         2.091600        -0.693583        -1.893463
 H         3.017092         0.823203        -1.598316
 H         2.474649        -2.673749         0.162731
 H         2.957607        -1.689748         1.709130
 H         4.863586         1.766918         1.229264
 H         4.082063         2.211106        -0.517974
 H         2.628600         0.698909         2.026219
