19
Iteration:  1573
 C         0.196737         1.050944        -0.217589
 C         1.481868         0.273519        -0.034057
 C         2.505808        -0.062197        -1.192199
 C         3.360470        -0.459895         0.181680
 C         2.690297        -1.747888         0.593529
 O         1.283351        -1.203509         0.471191
 O         4.680008         0.192452         0.086351
 C         3.947449         1.502371         0.428356
 C         2.696495         0.748628         0.849775
 H        -0.530071         1.230520         0.570632
 H         0.477746         2.032327        -0.370133
 H        -0.424489         0.783674        -1.086366
 H         2.182095        -0.898309        -1.912412
 H         2.973452         0.759545        -1.623311
 H         2.819268        -2.745332         0.006944
 H         3.057851        -1.945243         1.683777
 H         4.401232         1.981103         1.282777
 H         3.944601         2.161645        -0.582239
 H         2.422817         0.655748         1.892830
