19
Iteration:  2036
 C         0.134298         1.019184        -0.187845
 C         1.460887         0.273989        -0.017834
 C         2.502031        -0.014328        -1.232164
 C         3.408201        -0.401283         0.112180
 C         2.671956        -1.697161         0.565889
 O         1.324150        -1.152489         0.503725
 O         4.725767         0.147392         0.139236
 C         3.924543         1.412383         0.426494
 C         2.686647         0.753535         0.843411
 H        -0.389520         1.326042         0.769023
 H         0.378087         1.979446        -0.746759
 H        -0.531846         0.489489        -0.904814
 H         2.369233        -0.938041        -1.865317
 H         2.781055         0.855397        -1.755799
 H         2.625739        -2.669075        -0.000791
 H         2.971298        -1.940252         1.607868
 H         4.490721         1.824762         1.150065
 H         3.741668         1.976261        -0.415398
 H         2.593236         0.530435         1.852567
