19
Iteration:   823charge 0 multiplicity 1
 C         0.164060         1.004917        -0.257434
 C         1.480720         0.233676         0.031111
 C         2.482813        -0.014898        -1.189569
 C         3.374475        -0.412077         0.090850
 C         2.686434        -1.678563         0.543912
 O         1.330330        -1.188278         0.446287
 O         4.723826         0.213829         0.096541
 C         3.897340         1.475003         0.487264
 C         2.691501         0.635079         0.887072
 H        -0.259441         1.531125         0.696254
 H         0.370640         1.751323        -1.000907
 H        -0.669702         0.384148        -0.604127
 H         2.120161        -0.923082        -1.745443
 H         2.890567         0.804312        -1.705651
 H         2.868101        -2.521299        -0.122483
 H         2.901235        -1.885788         1.550195
 H         4.405506         2.009390         1.429578
 H         3.812400         2.355251        -0.236188
 H         2.656627         0.672133         2.028932
