19
Iteration:    46charge 0 multiplicity 1
 C         0.046345         0.830092        -0.267098
 C         1.460718         0.384007         0.005816
 C         2.410408        -0.005221        -1.196693
 C         3.362926        -0.395568        -0.038746
 C         2.692729        -1.642013         0.553872
 O         1.295629        -1.110158         0.584852
 O         4.773265         0.179139         0.118978
 C         4.081772         1.450031         0.496179
 C         2.722313         0.683752         0.885761
 H        -0.594473         0.589132         0.501108
 H         0.047408         1.937480        -0.393395
 H        -0.264950         0.368427        -1.193153
 H         1.977868        -0.882608        -1.744125
 H         2.767881         0.763902        -1.893955
 H         2.704082        -2.503843        -0.141980
 H         2.989673        -1.992465         1.537896
 H         4.575187         2.003787         1.349124
 H         3.981305         2.114528        -0.298545
 H         2.679740         0.351672         1.848002
