19
Iteration:  1447charge 0 multiplicity 1
 C         0.187837         0.959496        -0.221853
 C         1.486601         0.285098        -0.090662
 C         2.451302        -0.106946        -1.153400
 C         3.351409        -0.398591         0.039189
 C         2.679688        -1.674980         0.548782
 O         1.354498        -1.094912         0.508208
 O         4.671960         0.146424         0.140319
 C         3.960840         1.488582         0.496302
 C         2.700257         0.692075         0.857003
 H        -0.411909         1.085311         0.724750
 H         0.489843         2.055867        -0.546531
 H        -0.400287         0.639201        -1.116392
 H         2.024175        -0.965934        -1.724962
 H         2.770439         0.582275        -1.889783
 H         2.709327        -2.565230        -0.077699
 H         2.934171        -1.926646         1.574307
 H         4.342103         2.113967         1.371464
 H         3.955488         2.163121        -0.329725
 H         2.638708         0.564455         2.031179
