19
Iteration:  1237
 C         0.076462         0.902009        -0.238582
 C         1.449767         0.299454        -0.059463
 C         2.467834        -0.091294        -1.198906
 C         3.388406        -0.440151         0.035719
 C         2.746948        -1.646277         0.553305
 O         1.252829        -1.029960         0.552220
 O         4.731025         0.185052         0.170962
 C         4.085058         1.421892         0.471673
 C         2.649115         0.682202         0.826115
 H        -0.537454         0.747172         0.741740
 H         0.243563         2.001711        -0.315528
 H        -0.602180         0.590317        -1.122798
 H         2.032575        -0.835036        -1.919285
 H         2.831967         0.800518        -1.864504
 H         3.002705        -2.436814        -0.150668
 H         3.017065        -2.063605         1.577111
 H         4.537699         2.010157         1.303686
 H         4.204208         2.186482        -0.356922
 H         2.454125         0.494274         1.957595
