19
Iteration:  1945charge 0 multiplicity 1
 C         0.141615         0.785732        -0.219868
 C         1.491159         0.333136        -0.085936
 C         2.351381        -0.007074        -1.161643
 C         3.421780        -0.393142         0.042532
 C         2.617297        -1.581683         0.563768
 O         1.303674        -1.088653         0.482454
 O         4.690559         0.108161         0.159687
 C         4.138096         1.412273         0.479209
 C         2.703284         0.802713         0.860276
 H        -0.528171         0.781777         0.643328
 H         0.049222         1.915041        -0.563996
 H        -0.297991         0.300341        -1.135314
 H         1.882445        -0.845445        -1.676641
 H         2.756476         0.883674        -1.794323
 H         2.722085        -2.565704         0.030909
 H         2.867957        -1.863292         1.593191
 H         4.720116         1.589673         1.279478
 H         4.102956         2.095991        -0.347046
 H         2.732272         0.684684         2.052954
