19
Iteration:  2969
 C         0.091744         0.861031        -0.208042
 C         1.479390         0.273226        -0.021874
 C         2.455642         0.017037        -1.192124
 C         3.375331        -0.353386         0.047501
 C         2.674076        -1.590109         0.661212
 O         1.268387        -1.038827         0.595795
 O         4.723960         0.055532        -0.027417
 C         4.120574         1.345260         0.477539
 C         2.620733         0.793578         0.805181
 H        -0.339189         0.659154         0.828339
 H         0.106316         1.861448        -0.579258
 H        -0.360360         0.321470        -1.101553
 H         2.241525        -0.655642        -2.074761
 H         2.892925         0.901874        -1.632811
 H         2.671724        -2.496936         0.100249
 H         2.791670        -1.792055         1.745675
 H         4.697580         1.497080         1.370215
 H         4.329375         2.151637        -0.409227
 H         2.567247         0.636586         1.921477
