19
Iteration:  4296charge 0 multiplicity 1
 C         0.063088         0.856504        -0.199846
 C         1.449225         0.236172        -0.037915
 C         2.483258        -0.018121        -1.178659
 C         3.321620        -0.380957         0.058248
 C         2.642235        -1.575114         0.584450
 O         1.278902        -1.020632         0.621531
 O         4.744684         0.044666        -0.039100
 C         4.126327         1.385363         0.484925
 C         2.720415         0.787889         0.845839
 H        -0.577320         1.180202         0.680437
 H         0.061788         1.780810        -0.885850
 H        -0.452353         0.028990        -0.778525
 H         2.332355        -0.783416        -1.969146
 H         2.633607         1.013840        -1.507510
 H         2.726773        -2.420063        -0.189246
 H         3.084500        -1.790949         1.630176
 H         4.552287         1.715683         1.453922
 H         4.304502         2.085478        -0.311811
 H         2.571717         0.811882         1.970020
