19
Iteration:  2048
 C         0.178038         0.942128        -0.228646
 C         1.527949         0.236778        -0.057648
 C         2.542616         0.010926        -1.164333
 C         3.343337        -0.440516         0.045800
 C         2.705164        -1.654948         0.591156
 O         1.284445        -1.087383         0.537743
 O         4.621955         0.110202         0.127402
 C         4.028594         1.468316         0.401926
 C         2.636286         0.685753         0.847124
 H        -0.273032         0.887551         0.817790
 H         0.287899         2.005076        -0.472988
 H        -0.604129         0.410876        -0.842522
 H         2.169858        -0.586933        -2.007743
 H         2.823400         0.984790        -1.567990
 H         2.778169        -2.534136        -0.088314
 H         3.010049        -1.865082         1.642995
 H         4.419642         1.961246         1.270298
 H         4.162948         2.145780        -0.387248
 H         2.466471         0.748548         1.864985
