19
Iteration:  2032charge 0 multiplicity 1
 C         0.130745         1.046238        -0.167342
 C         1.433101         0.281513        -0.051756
 C         2.461745        -0.040454        -1.212987
 C         3.399973        -0.403061         0.072510
 C         2.657825        -1.709727         0.574065
 O         1.339862        -1.160052         0.497016
 O         4.758640         0.166316         0.146004
 C         3.927520         1.401924         0.439900
 C         2.676519         0.734025         0.865097
 H        -0.350802         1.373943         0.730079
 H         0.439798         1.909849        -0.821772
 H        -0.410321         0.460227        -0.889608
 H         2.368582        -0.963154        -1.797194
 H         2.901800         0.775242        -1.846166
 H         2.740423        -2.591445        -0.107438
 H         2.859255        -1.922840         1.610749
 H         4.520642         2.062841         1.180196
 H         3.758991         2.013560        -0.521508
 H         2.635238         0.563229         2.040891
