19
Iteration:  4739charge 0 multiplicity 1
 C         0.067791         0.886020        -0.145863
 C         1.438692         0.311673        -0.054934
 C         2.425702        -0.052362        -1.192828
 C         3.419544        -0.395102         0.023019
 C         2.615984        -1.576291         0.564989
 O         1.267784        -1.059525         0.547748
 O         4.743173         0.045155         0.084995
 C         4.194070         1.425545         0.467041
 C         2.695386         0.782564         0.795503
 H        -0.544072         0.647403         0.817169
 H        -0.147311         1.997592        -0.201204
 H        -0.330288         0.333696        -0.967200
 H         2.099950        -0.955412        -1.820656
 H         2.550540         0.867688        -1.737700
 H         2.594522        -2.439770        -0.157526
 H         3.084512        -1.930309         1.509957
 H         4.715624         1.780784         1.471839
 H         4.176204         2.264844        -0.346372
 H         2.630912         0.589414         1.918525
