19
Iteration:  3769
 C         0.310708         1.094940        -0.137706
 C         1.511857         0.284728        -0.039919
 C         2.372413        -0.110702        -1.220678
 C         3.336228        -0.426250         0.029940
 C         2.641122        -1.620031         0.638327
 O         1.316476        -1.159831         0.517279
 O         4.713445         0.166656         0.110230
 C         3.899948         1.442440         0.457438
 C         2.691523         0.642763         0.798414
 H        -0.248922         1.015841         0.797159
 H         0.650481         2.118126        -0.501516
 H        -0.315563         0.807135        -0.996524
 H         1.921330        -0.968003        -1.879655
 H         2.897561         0.622617        -1.929510
 H         2.825875        -2.579151         0.039505
 H         3.120173        -1.693110         1.639479
 H         4.581564         1.877711         1.247047
 H         3.762939         2.082982        -0.576852
 H         2.446728         0.419016         1.909882
