19
Iteration:  3674
 C         0.128806         0.968367        -0.143602
 C         1.449019         0.270739        -0.122201
 C         2.455424         0.055349        -1.203307
 C         3.336388        -0.436020         0.034212
 C         2.701446        -1.666607         0.571747
 O         1.287494        -1.116456         0.600407
 O         4.737764         0.067923         0.121406
 C         4.103519         1.389466         0.414202
 C         2.660056         0.811251         0.801169
 H        -0.259941         1.107327         0.876630
 H         0.170699         1.714199        -0.904080
 H        -0.558725         0.276480        -0.651919
 H         2.271665        -0.735215        -1.862663
 H         2.686755         0.930652        -1.769179
 H         2.637339        -2.602341         0.076052
 H         3.005127        -1.788844         1.619095
 H         4.556633         1.723176         1.333433
 H         3.946729         2.120448        -0.268412
 H         2.415547         0.827226         1.871719
