19
Iteration:   662
 C         0.145193         1.001581        -0.206921
 C         1.443684         0.280919        -0.134457
 C         2.470295        -0.041107        -1.240449
 C         3.403488        -0.404780        -0.009767
 C         2.719332        -1.647611         0.587100
 O         1.364005        -1.142201         0.558412
 O         4.652010         0.198455         0.158581
 C         3.926073         1.406989         0.516869
 C         2.667931         0.638381         0.883888
 H        -0.175970         1.318395         0.767936
 H         0.161527         1.862808        -0.936229
 H        -0.536098         0.322332        -0.816187
 H         2.471975        -0.757373        -2.138325
 H         2.831778         0.899583        -1.584285
 H         2.942551        -2.436248        -0.201965
 H         3.126669        -1.920593         1.605277
 H         4.370980         1.937905         1.370805
 H         3.870436         2.121757        -0.217971
 H         2.653714         0.446041         2.023313
