19
Iteration:   131
 C         0.191148         0.890040        -0.144968
 C         1.569724         0.336530         0.009160
 C         2.401478        -0.043571        -1.331023
 C         3.425809        -0.399257        -0.034963
 C         2.682350        -1.657444         0.521596
 O         1.266495        -1.130450         0.513770
 O         4.721032         0.201494         0.215746
 C         3.908301         1.483916         0.492936
 C         2.718442         0.642739         0.879551
 H        -0.216244         1.348295         0.801875
 H         0.254140         1.810981        -0.843673
 H        -0.483955         0.107433        -0.587188
 H         2.087310        -0.892187        -1.826849
 H         2.577104         0.675194        -2.074570
 H         2.657860        -2.495806        -0.125823
 H         2.991355        -1.883118         1.535112
 H         4.371764         2.084487         1.320908
 H         3.866988         2.064949        -0.528197
 H         2.618542         0.518174         2.049353
