19
Iteration:   471charge 0 multiplicity 1
 C         0.082618         0.776640        -0.221033
 C         1.505505         0.333386        -0.043271
 C         2.451732        -0.060945        -1.250167
 C         3.284495        -0.298889         0.077093
 C         2.634622        -1.605781         0.464878
 O         1.384909        -1.135472         0.511042
 O         4.670516         0.117517         0.192408
 C         4.131207         1.448957         0.547723
 C         2.671904         0.821849         0.834078
 H        -0.348242         1.147983         0.664916
 H         0.065444         1.632212        -0.913485
 H        -0.579912         0.002989        -0.565507
 H         2.002831        -0.930711        -1.737802
 H         2.759656         0.879145        -1.744526
 H         2.798544        -2.409789        -0.321836
 H         3.074325        -2.060193         1.389237
 H         4.644553         1.788785         1.384594
 H         4.247098         2.168071        -0.222145
 H         2.593485         0.599080         1.998547
