19
Iteration:  4850
 C         0.105674         0.980595        -0.068150
 C         1.490577         0.300786        -0.073372
 C         2.463315        -0.041446        -1.169818
 C         3.309348        -0.434523         0.044437
 C         2.659649        -1.664680         0.555659
 O         1.356971        -1.041212         0.514162
 O         4.666474         0.066162         0.070978
 C         4.078740         1.391442         0.415807
 C         2.683587         0.733941         0.808822
 H        -0.157592         1.189936         1.001360
 H         0.239189         1.938003        -0.634726
 H        -0.588429         0.387338        -0.635631
 H         2.352168        -0.818234        -1.902773
 H         2.865260         0.787949        -1.817745
 H         2.774383        -2.610742         0.002834
 H         2.939367        -1.800041         1.629581
 H         4.509959         1.930349         1.324065
 H         4.062023         2.250698        -0.292994
 H         2.425823         0.657989         1.895707
