19
Iteration:  2896charge 0 multiplicity 1
 C         0.150314         1.099628        -0.090084
 C         1.518034         0.256897        -0.075330
 C         2.494681        -0.035908        -1.225664
 C         3.296222        -0.455423         0.125481
 C         2.678018        -1.741048         0.672560
 O         1.301168        -1.201729         0.502783
 O         4.696477         0.171607         0.105668
 C         4.037140         1.441773         0.299479
 C         2.680860         0.739011         0.832096
 H        -0.159817         1.290195         0.921333
 H         0.346872         1.950972        -0.735636
 H        -0.619894         0.621169        -0.776470
 H         2.261626        -0.748139        -2.024294
 H         2.766018         0.981928        -1.594165
 H         2.739810        -2.608930        -0.047923
 H         2.878049        -1.915885         1.784194
 H         4.568353         2.147872         1.037800
 H         3.885281         2.018085        -0.553010
 H         2.398245         0.587603         1.888133
