19
Iteration:  4937
 C         0.157551         1.059417        -0.131939
 C         1.531331         0.241068         0.004881
 C         2.414496        -0.095072        -1.204023
 C         3.378038        -0.488854         0.007792
 C         2.665749        -1.673478         0.595751
 O         1.247270        -1.068963         0.539352
 O         4.727546         0.174477         0.083559
 C         4.003407         1.451221         0.429008
 C         2.781121         0.673153         0.798076
 H        -0.417821         0.969686         0.768615
 H         0.333951         2.066651        -0.481370
 H        -0.555561         0.736748        -0.789756
 H         2.088289        -0.778536        -1.976208
 H         2.679322         0.805580        -1.824590
 H         2.669234        -2.608350         0.049624
 H         2.782915        -2.028831         1.634806
 H         4.574482         1.951941         1.278396
 H         3.896993         2.202856        -0.368461
 H         2.464421         0.492307         1.843980
