19
Iteration:  2186charge 0 multiplicity 1
 C         0.155686         0.976996        -0.162730
 C         1.487453         0.217849        -0.112052
 C         2.511708        -0.040055        -1.280285
 C         3.388399        -0.413524         0.071168
 C         2.652244        -1.648269         0.603811
 O         1.345253        -1.091563         0.586375
 O         4.672994         0.145492         0.137427
 C         3.993814         1.408154         0.441483
 C         2.618111         0.722190         0.770975
 H        -0.041389         1.288341         0.866312
 H         0.286374         1.905200        -0.734719
 H        -0.684631         0.430401        -0.381042
 H         2.366536        -0.784781        -2.122326
 H         2.904399         0.839388        -1.682098
 H         2.642769        -2.568170        -0.014267
 H         3.009255        -1.847299         1.591621
 H         4.427943         1.815664         1.389922
 H         4.026451         2.310764        -0.248522
 H         2.370031         0.573440         1.860771
