19
Iteration:  4193
 C         0.156668         1.000623        -0.116362
 C         1.481799         0.244473        -0.055027
 C         2.394948        -0.097954        -1.211575
 C         3.376769        -0.445758         0.058313
 C         2.675833        -1.588394         0.580656
 O         1.373037        -1.044260         0.494041
 O         4.647963         0.136193         0.112850
 C         4.059950         1.371785         0.439258
 C         2.681704         0.724173         0.794781
 H        -0.288448         1.128924         0.907021
 H         0.244846         2.001675        -0.577574
 H        -0.594191         0.453168        -0.677343
 H         2.303655        -0.922315        -1.959563
 H         2.854457         0.698660        -1.814171
 H         2.640315        -2.677449         0.202929
 H         2.820076        -1.763660         1.753141
 H         4.515207         1.906515         1.238986
 H         3.827008         2.029573        -0.424513
 H         2.699765         0.676115         1.853635
