19
Iteration:  4414
 C         0.138390         0.908433        -0.196969
 C         1.474421         0.256737        -0.009669
 C         2.521465        -0.015471        -1.217140
 C         3.349251        -0.407470         0.021729
 C         2.663409        -1.596787         0.626006
 O         1.273607        -1.049973         0.613560
 O         4.657286         0.064375         0.012313
 C         4.047315         1.451111         0.445046
 C         2.758326         0.720685         0.828962
 H        -0.520203         0.923458         0.668310
 H         0.314949         1.974454        -0.375244
 H        -0.296247         0.496726        -1.033620
 H         1.880511        -0.692989        -1.864588
 H         2.936411         0.855708        -1.713420
 H         2.579229        -2.479101        -0.006481
 H         2.926885        -2.051637         1.583891
 H         4.373644         1.918526         1.379184
 H         3.978072         2.101769        -0.481702
 H         2.791341         0.424567         1.950530
