19
Iteration:  1205
 C         0.151131         0.783137        -0.305475
 C         1.517516         0.351208        -0.003779
 C         2.504707         0.007092        -1.174246
 C         3.294882        -0.393618         0.070270
 C         2.634559        -1.605967         0.589318
 O         1.332654        -1.132535         0.565252
 O         4.648251         0.154040         0.043133
 C         4.107142         1.413107         0.500709
 C         2.657971         0.746995         0.857306
 H        -0.419335         1.016538         0.586471
 H         0.284325         1.783831        -0.702120
 H        -0.540211         0.234119        -0.889131
 H         2.144140        -0.619374        -1.984439
 H         2.896902         0.956309        -1.587845
 H         2.833442        -2.295984        -0.232038
 H         2.754186        -1.943361         1.634545
 H         4.496504         1.686438         1.498617
 H         4.212623         2.116716        -0.347118
 H         2.517082         0.605635         1.976899
