19
Iteration:  3724
 C         0.100031         0.838955        -0.215507
 C         1.490340         0.359794        -0.020392
 C         2.462520        -0.026605        -1.237548
 C         3.400406        -0.418210         0.070128
 C         2.598472        -1.636485         0.566692
 O         1.229577        -1.092754         0.624284
 O         4.739786         0.084544         0.055469
 C         4.156398         1.435191         0.475993
 C         2.710146         0.806981         0.848934
 H        -0.422163         0.760604         0.747232
 H         0.182915         1.923731        -0.587542
 H        -0.435761         0.254920        -0.979250
 H         2.080135        -0.734566        -2.078679
 H         2.778196         0.949077        -1.778969
 H         2.566203        -2.398993        -0.298781
 H         2.641116        -2.184867         1.523203
 H         4.531142         1.928682         1.412515
 H         4.160704         2.085149        -0.580073
 H         2.679735         0.741615         1.987114
