19
Iteration:  4383
 C         0.231868         1.059885        -0.110254
 C         1.495437         0.307019        -0.038232
 C         2.461502        -0.106845        -1.135340
 C         3.385321        -0.471834         0.096905
 C         2.669794        -1.669760         0.591919
 O         1.304512        -1.154298         0.513293
 O         4.689642         0.166431         0.066635
 C         3.972335         1.437086         0.367135
 C         2.660722         0.719957         0.775118
 H        -0.296879         1.084680         0.846632
 H         0.520636         2.104014        -0.342753
 H        -0.368239         0.628214        -0.888529
 H         1.822061        -0.860103        -1.639758
 H         2.745478         0.560269        -1.882659
 H         2.667200        -2.445531        -0.134908
 H         2.930490        -1.898951         1.585262
 H         4.209221         1.987196         1.241888
 H         4.073214         2.082030        -0.435763
 H         2.558081         0.762926         1.899449
