19
Iteration:  1208
 C         0.153093         0.802583        -0.290429
 C         1.496945         0.327743        -0.028614
 C         2.513322         0.010232        -1.156994
 C         3.287940        -0.396097         0.077291
 C         2.603428        -1.613461         0.588329
 O         1.353787        -1.132621         0.565705
 O         4.649207         0.145262         0.042010
 C         4.095704         1.419166         0.500216
 C         2.673964         0.782357         0.852109
 H        -0.470460         0.945768         0.531626
 H         0.267689         1.812349        -0.694821
 H        -0.509912         0.230654        -0.900048
 H         2.196547        -0.626966        -1.969438
 H         2.824644         0.861500        -1.615249
 H         2.903242        -2.334621        -0.267828
 H         2.841080        -1.955317         1.586426
 H         4.542313         1.674284         1.535263
 H         4.199565         2.142210        -0.293814
 H         2.552799         0.567428         1.959347
