19
Iteration:  2931charge 0 multiplicity 1
 C         0.163671         0.911751        -0.217029
 C         1.495858         0.318589        -0.076086
 C         2.365116        -0.112449        -1.242009
 C         3.374727        -0.381660         0.041967
 C         2.634916        -1.672367         0.536686
 O         1.323767        -1.008797         0.671130
 O         4.720780         0.119043         0.084805
 C         4.086650         1.416759         0.428315
 C         2.687389         0.779020         0.911098
 H        -0.541671         0.903133         0.562991
 H         0.202070         2.011766        -0.447016
 H        -0.307841         0.296396        -0.947823
 H         2.034100        -0.917554        -1.869846
 H         2.586297         0.769486        -1.950588
 H         2.798390        -2.492960        -0.225235
 H         2.867475        -2.184329         1.474945
 H         4.631519         1.896601         1.282246
 H         3.989744         1.942018        -0.399628
 H         2.619313         0.411876         1.932921
