19
Iteration:   424
 C         0.173462         0.964654        -0.225249
 C         1.485904         0.288761        -0.084132
 C         2.449726         0.003405        -1.201308
 C         3.447855        -0.446497         0.011768
 C         2.721872        -1.642182         0.586259
 O         1.276610        -1.182263         0.514798
 O         4.628547         0.254204         0.091531
 C         3.994299         1.470006         0.535439
 C         2.684893         0.611101         0.876469
 H        -0.358117         1.078193         0.673575
 H         0.233263         1.921220        -0.758606
 H        -0.445449         0.273414        -0.823693
 H         2.298500        -1.001676        -1.766883
 H         2.940935         0.849188        -1.638052
 H         2.772140        -2.588769         0.091893
 H         2.943685        -1.842102         1.635001
 H         4.451877         1.972006         1.370986
 H         3.902499         2.243606        -0.301067
 H         2.569013         0.463237         1.918697
