19
Iteration:   828
 C         0.139179         1.022866        -0.245231
 C         1.457843         0.220536        -0.014846
 C         2.497151        -0.041878        -1.157343
 C         3.365580        -0.413788         0.098345
 C         2.710829        -1.672151         0.511430
 O         1.329270        -1.209809         0.445253
 O         4.733688         0.203116         0.095851
 C         3.903683         1.496906         0.497712
 C         2.697426         0.677190         0.917034
 H        -0.093439         1.491664         0.656976
 H         0.258346         1.860647        -0.990224
 H        -0.690217         0.449039        -0.691288
 H         2.072274        -0.865042        -1.697508
 H         2.814729         0.820279        -1.849693
 H         2.783938        -2.640571        -0.044439
 H         2.974303        -1.916439         1.612232
 H         4.313126         1.907377         1.366935
 H         3.860477         2.306063        -0.222022
 H         2.730200         0.721682         2.010998
