19
Iteration:  4042charge 0 multiplicity 1
 C         0.216448         1.019806        -0.185025
 C         1.459164         0.237887        -0.034926
 C         2.331832        -0.089543        -1.157369
 C         3.320863        -0.417763         0.054466
 C         2.595673        -1.676941         0.599808
 O         1.337417        -1.070235         0.535495
 O         4.791223         0.128348         0.142160
 C         4.053281         1.460671         0.366229
 C         2.694313         0.724121         0.791414
 H        -0.265282         0.970982         0.845235
 H         0.293300         2.013055        -0.644757
 H        -0.474293         0.526365        -0.895341
 H         1.991944        -0.939088        -1.781051
 H         2.920870         0.746686        -1.480237
 H         2.764579        -2.454396        -0.126988
 H         2.722384        -1.988125         1.600578
 H         4.566263         1.930091         1.145242
 H         4.051606         2.106368        -0.500220
 H         2.602747         0.568740         1.877561
