19
Iteration:  2455charge 0 multiplicity 1
 C         0.259637         1.079188        -0.143056
 C         1.535366         0.196315        -0.069581
 C         2.370374        -0.196866        -1.219451
 C         3.347091        -0.464267         0.113877
 C         2.669294        -1.659587         0.561910
 O         1.330844        -1.124340         0.508896
 O         4.733490         0.157502         0.242502
 C         3.972502         1.511278         0.347985
 C         2.668648         0.786433         0.755656
 H        -0.212761         0.918768         0.801882
 H         0.327548         2.193553        -0.281595
 H        -0.418439         0.789889        -0.896814
 H         1.938247        -1.009261        -1.838886
 H         2.537174         0.649096        -1.847782
 H         2.689680        -2.460413        -0.120571
 H         2.881377        -2.107172         1.555900
 H         4.489138         1.964127         1.276864
 H         3.717752         2.132599        -0.577048
 H         2.441792         0.874013         1.837288
