19
Iteration:  1048
 C         0.068864         0.839883        -0.258543
 C         1.496503         0.280294        -0.072158
 C         2.432900         0.007830        -1.218941
 C         3.363881        -0.390484         0.083672
 C         2.718892        -1.675015         0.525014
 O         1.319016        -1.042201         0.599318
 O         4.695588         0.173124         0.108292
 C         4.094657         1.448060         0.545912
 C         2.641791         0.712169         0.816659
 H        -0.585475         0.734423         0.600254
 H         0.180515         1.820694        -0.544806
 H        -0.364520         0.241561        -1.018947
 H         2.381255        -0.908411        -1.857117
 H         2.726233         0.838846        -1.818100
 H         2.609954        -2.477552        -0.143739
 H         2.902904        -1.989306         1.538766
 H         4.540437         1.761181         1.425516
 H         4.299354         2.131619        -0.307061
 H         2.554890         0.594938         1.844444
