19
Iteration:  1609
 C         0.139722         0.905012        -0.233504
 C         1.522575         0.234065        -0.048964
 C         2.485855        -0.043158        -1.259041
 C         3.363071        -0.411602         0.014703
 C         2.641939        -1.626410         0.536737
 O         1.287059        -1.066104         0.605951
 O         4.704070         0.109523         0.159609
 C         3.982371         1.487549         0.509759
 C         2.694277         0.702123         0.811200
 H        -0.374410         0.945144         0.717006
 H         0.481823         1.945662        -0.469830
 H        -0.395230         0.574099        -1.104727
 H         2.385270        -0.916274        -1.953361
 H         2.954939         0.794722        -1.860058
 H         2.760020        -2.566187        -0.052202
 H         2.855489        -1.758124         1.682771
 H         4.528615         2.034104         1.362068
 H         3.752966         2.235094        -0.277551
 H         2.521853         0.552711         1.836345
