19
Iteration:  2781charge 0 multiplicity 1
 C         0.079217         0.943449        -0.186735
 C         1.461232         0.300195        -0.007821
 C         2.510816        -0.068489        -1.155594
 C         3.391708        -0.428980         0.052975
 C         2.640955        -1.679246         0.662750
 O         1.294296        -1.056473         0.560836
 O         4.750723         0.122498         0.026768
 C         4.031489         1.395700         0.389062
 C         2.707574         0.762208         0.828655
 H        -0.670164         0.833022         0.629311
 H         0.166358         2.024611        -0.571985
 H        -0.340359         0.553710        -1.092429
 H         1.976496        -0.672376        -1.854541
 H         2.899729         0.793456        -1.772602
 H         2.724023        -2.539623         0.020915
 H         2.873761        -1.862818         1.693645
 H         4.501630         1.781020         1.236337
 H         4.045306         2.082430        -0.504018
 H         2.520392         0.759692         1.912895
