19
Iteration:  3973
 C         0.120147         0.923386        -0.152672
 C         1.458040         0.341535        -0.066956
 C         2.464528        -0.140907        -1.192109
 C         3.338017        -0.394595         0.006892
 C         2.572358        -1.640323         0.530152
 O         1.243998        -1.065324         0.588866
 O         4.722393         0.097817         0.098693
 C         4.155517         1.469629         0.485738
 C         2.772406         0.766045         0.795123
 H        -0.234160         1.005647         0.885812
 H         0.122696         1.833973        -0.805575
 H        -0.581142         0.257541        -0.784166
 H         2.085407        -0.926428        -1.911543
 H         2.954927         0.740649        -1.658944
 H         2.597867        -2.593745         0.075179
 H         2.916968        -1.639448         1.546142
 H         4.520219         1.914522         1.416881
 H         4.170443         2.149354        -0.337778
 H         2.700663         0.352512         1.795555
