19
Iteration:  1382charge 0 multiplicity 1
 C         0.151953         0.833210        -0.188505
 C         1.529131         0.298728        -0.028205
 C         2.464774        -0.023172        -1.234569
 C         3.303197        -0.400282         0.031821
 C         2.653045        -1.656488         0.598986
 O         1.261917        -1.061698         0.433637
 O         4.734056         0.100101         0.136116
 C         4.016134         1.460517         0.505817
 C         2.728082         0.777472         0.881187
 H        -0.382602         0.967935         0.739807
 H         0.184286         1.887395        -0.607653
 H        -0.482573         0.293863        -0.902921
 H         2.166759        -0.983392        -1.650291
 H         2.887229         0.719391        -1.812004
 H         2.888973        -2.540825        -0.042277
 H         2.835345        -1.808249         1.654727
 H         4.572592         2.207675         1.207935
 H         4.052188         1.994234        -0.447998
 H         2.475574         0.677196         2.041288
