19
Iteration:   650
 C         0.147571         0.885825        -0.211143
 C         1.536264         0.285499        -0.090459
 C         2.534152         0.057186        -1.180712
 C         3.356263        -0.417753         0.016516
 C         2.719360        -1.628659         0.566329
 O         1.268818        -1.162773         0.525761
 O         4.709575         0.205028         0.150539
 C         3.978086         1.409317         0.509967
 C         2.629650         0.696605         0.780489
 H        -0.146287         1.251637         0.768632
 H         0.198048         1.760150        -0.840584
 H        -0.648631         0.167289        -0.423044
 H         2.115610        -0.653525        -1.926128
 H         2.813048         0.973850        -1.639698
 H         2.623945        -2.628819         0.051713
 H         3.121200        -1.820146         1.598446
 H         4.484027         1.827700         1.415110
 H         3.972878         2.052009        -0.307088
 H         2.287228         0.447374         1.883792
