19
Iteration:  2669
 C         0.019831         0.835837        -0.308184
 C         1.470378         0.370602        -0.077586
 C         2.391174        -0.036820        -1.193831
 C         3.322267        -0.384236        -0.028014
 C         2.625488        -1.643714         0.583418
 O         1.343293        -1.033138         0.702089
 O         4.725769         0.143419         0.032617
 C         4.176985         1.364726         0.525902
 C         2.747601         0.755517         0.903990
 H        -0.570035         1.190017         0.545014
 H         0.113969         1.692040        -1.040338
 H        -0.481112        -0.058766        -0.827821
 H         2.122355        -0.940397        -1.823393
 H         2.975346         0.671719        -1.778302
 H         2.551508        -2.382936        -0.198383
 H         2.890816        -1.930832         1.555653
 H         4.776902         1.693223         1.416143
 H         4.069084         2.021852        -0.378338
 H         2.692098         0.652911         2.008572
