19
Iteration:  2517
 C         0.104543         0.819403        -0.269185
 C         1.520974         0.306907        -0.006777
 C         2.413653        -0.022536        -1.159998
 C         3.328112        -0.380509        -0.011862
 C         2.572864        -1.558163         0.669353
 O         1.278871        -1.020430         0.533377
 O         4.700966         0.130875         0.037895
 C         4.195343         1.370728         0.489664
 C         2.735508         0.749584         0.846557
 H        -0.587919         1.188769         0.529882
 H        -0.042056         1.443887        -1.182221
 H        -0.377587        -0.176763        -0.579365
 H         2.073877        -0.986281        -1.708589
 H         2.685536         0.781314        -1.792734
 H         2.821194        -2.464764         0.028479
 H         2.924646        -1.807739         1.708608
 H         4.598360         1.517915         1.414535
 H         4.457539         2.261911        -0.076186
 H         2.606208         0.567941         1.918736
