19
Iteration:   522
 C         0.225803         0.933660        -0.155527
 C         1.549746         0.190761        -0.084576
 C         2.560370         0.031328        -1.249637
 C         3.349573        -0.412336         0.027990
 C         2.696935        -1.734762         0.609873
 O         1.270727        -1.173525         0.474875
 O         4.623964         0.197191         0.107341
 C         3.932632         1.481551         0.528183
 C         2.656263         0.760682         0.890080
 H        -0.303573         0.790735         0.811459
 H         0.294731         2.059205        -0.388563
 H        -0.434970         0.539912        -1.013601
 H         2.203178        -0.812577        -1.986783
 H         2.889734         0.948895        -1.726515
 H         2.858869        -2.618112         0.032755
 H         2.851920        -1.851563         1.687375
 H         4.647642         2.063514         1.164965
 H         3.857778         2.151886        -0.484743
 H         2.450548         0.843213         1.888203
