19
Iteration:  1076
 C         0.128305         0.896271        -0.302583
 C         1.498910         0.284529        -0.064592
 C         2.448207         0.000101        -1.159458
 C         3.345064        -0.397933         0.068004
 C         2.804557        -1.689356         0.570277
 O         1.307861        -1.130040         0.589686
 O         4.645309         0.151079         0.045604
 C         4.032785         1.391994         0.519847
 C         2.603651         0.844424         0.859994
 H        -0.520591         0.636432         0.564226
 H         0.150344         2.081468        -0.370909
 H        -0.330109         0.457240        -1.272328
 H         2.312904        -0.817968        -1.835035
 H         2.901415         0.893898        -1.644843
 H         2.685463        -2.571774        -0.187228
 H         3.073896        -2.003125         1.598271
 H         4.645342         1.781742         1.468827
 H         4.187226         2.120894        -0.295260
 H         2.590607         0.634878         2.008831
