19
Iteration:  1472
 C         0.134795         0.898258        -0.261995
 C         1.483137         0.310103        -0.080439
 C         2.480336         0.038763        -1.175944
 C         3.358630        -0.436896         0.033476
 C         2.672158        -1.671673         0.622092
 O         1.297860        -1.090172         0.543173
 O         4.695800         0.173818         0.102189
 C         4.048688         1.375071         0.465774
 C         2.695461         0.664700         0.890253
 H        -0.370445         1.134054         0.714686
 H         0.004307         1.813317        -0.862235
 H        -0.366445         0.156451        -0.928937
 H         2.155471        -0.619975        -1.930513
 H         3.032449         0.966996        -1.619056
 H         2.748512        -2.530799        -0.141011
 H         2.849895        -1.870532         1.711010
 H         4.404325         2.040786         1.280169
 H         4.041426         2.176067        -0.410723
 H         2.414579         0.761288         2.040695
