19
Iteration:  2713charge 0 multiplicity 1
 C         0.141642         1.000278        -0.163551
 C         1.495627         0.304568        -0.001325
 C         2.524155        -0.069201        -1.198217
 C         3.352125        -0.468158         0.073355
 C         2.643780        -1.657754         0.621871
 O         1.293184        -1.153506         0.529951
 O         4.731001         0.150470         0.115693
 C         4.054344         1.425545         0.351578
 C         2.653579         0.769968         0.833076
 H        -0.234934         1.478080         0.738543
 H         0.118547         1.841510        -0.942227
 H        -0.746807         0.404973        -0.496298
 H         2.076440        -0.768150        -1.948263
 H         2.686730         0.879967        -1.740227
 H         2.682533        -2.509271        -0.054862
 H         2.930269        -1.768422         1.643948
 H         4.639156         1.999689         1.125632
 H         3.790050         1.899058        -0.652154
 H         2.582331         0.433740         1.894661
