19
Iteration:   248charge 0 multiplicity 1
 C         0.217465         0.999032        -0.101074
 C         1.484572         0.204130        -0.032240
 C         2.509836        -0.071840        -1.131770
 C         3.330529        -0.359033         0.156719
 C         2.719795        -1.749920         0.497895
 O         1.319837        -1.201207         0.410494
 O         4.635355         0.174717         0.115585
 C         3.961866         1.500885         0.401652
 C         2.628423         0.809020         0.867733
 H        -0.229643         1.113349         0.950025
 H         0.457845         1.981115        -0.380637
 H        -0.573585         0.609352        -0.711083
 H         2.538794        -0.814546        -2.068181
 H         2.860612         0.829647        -1.778034
 H         2.961635        -2.517755        -0.315089
 H         2.849679        -2.077890         1.587129
 H         4.514703         2.065502         1.102352
 H         3.939959         1.970433        -0.582198
 H         2.451579         0.782191         1.968750
