19
Iteration:  1403
 C         0.169592         0.998216        -0.192695
 C         1.508307         0.287106        -0.061019
 C         2.494581        -0.033400        -1.205824
 C         3.396499        -0.475435         0.079460
 C         2.651680        -1.643764         0.608759
 O         1.350646        -1.104011         0.484607
 O         4.672598         0.159503         0.181839
 C         3.939335         1.457461         0.412007
 C         2.639573         0.650989         0.771997
 H        -0.229290         0.853106         0.829905
 H         0.049809         2.137733        -0.244350
 H        -0.617791         0.619181        -0.874671
 H         2.327623        -0.863133        -1.957219
 H         3.058910         0.716851        -1.665833
 H         2.723439        -2.586368         0.041828
 H         2.950817        -1.841197         1.642838
 H         4.588108         1.992021         1.185406
 H         3.936357         2.121878        -0.419339
 H         2.533969         0.575570         1.940471
