19
Iteration:  1550charge 0 multiplicity 1
 C         0.249184         0.916462        -0.211592
 C         1.473246         0.216330        -0.065412
 C         2.504141        -0.022408        -1.180734
 C         3.389480        -0.414879         0.049633
 C         2.649533        -1.624690         0.579791
 O         1.269957        -1.088204         0.511896
 O         4.679090         0.202073         0.155859
 C         4.007416         1.419391         0.428835
 C         2.645518         0.691552         0.820735
 H        -0.186854         1.073457         0.808434
 H         0.368844         1.949114        -0.399663
 H        -0.604430         0.583383        -0.835503
 H         2.330589        -0.914035        -1.807065
 H         2.910686         0.856122        -1.662949
 H         2.834312        -2.575483        -0.050821
 H         2.755846        -1.928720         1.680291
 H         4.533689         1.906744         1.216931
 H         3.768145         2.129656        -0.503179
 H         2.371429         0.426763         1.909651
