19
Iteration:   141charge 0 multiplicity 1
 C         0.112059         0.906177        -0.223255
 C         1.521779         0.326890         0.013228
 C         2.485561        -0.030762        -1.212399
 C         3.406999        -0.395258        -0.037481
 C         2.683600        -1.664275         0.559635
 O         1.280826        -1.100659         0.509793
 O         4.713617         0.182025         0.141542
 C         3.961271         1.459808         0.482788
 C         2.727722         0.659736         0.898971
 H        -0.439790         1.112494         0.805816
 H         0.014884         1.805769        -0.912604
 H        -0.475315         0.035315        -0.644057
 H         2.086894        -0.809583        -1.782936
 H         2.633058         0.915541        -1.676334
 H         2.753246        -2.464256        -0.191188
 H         3.126765        -2.079821         1.495032
 H         4.552920         2.019132         1.200949
 H         3.794477         2.146898        -0.472971
 H         2.547256         0.381499         2.077339
