19
Iteration:   696
 C         0.277524         1.003068        -0.239651
 C         1.506526         0.264713        -0.013352
 C         2.411679        -0.122475        -1.164150
 C         3.352438        -0.413325         0.078171
 C         2.716413        -1.666682         0.491582
 O         1.290624        -1.210194         0.510913
 O         4.689468         0.296868         0.121662
 C         3.965384         1.453761         0.484451
 C         2.638407         0.723285         0.866295
 H        -0.362201         0.812728         0.639495
 H         0.399784         2.145647        -0.391146
 H        -0.348695         0.387860        -0.994002
 H         2.362307        -0.976472        -1.922544
 H         2.792875         0.740619        -1.738866
 H         2.861387        -2.489966        -0.276871
 H         2.674642        -2.164347         1.507696
 H         4.331756         1.811601         1.414574
 H         3.932466         2.155439        -0.272219
 H         2.542720         0.793608         1.970251
