19
Iteration:   734
 C         0.100162         0.876908        -0.193810
 C         1.510813         0.293276        -0.040728
 C         2.495563         0.029631        -1.221460
 C         3.381230        -0.414830         0.038398
 C         2.711588        -1.640067         0.596171
 O         1.322855        -1.069736         0.460424
 O         4.699644         0.157189         0.176993
 C         3.967965         1.363132         0.464093
 C         2.664086         0.710906         0.821389
 H        -0.375358         0.393046         0.727226
 H        -0.156809         1.913612        -0.157261
 H        -0.316867         0.478576        -1.088307
 H         2.161359        -0.626219        -2.012803
 H         2.926665         0.955810        -1.623962
 H         2.856457        -2.573029         0.089541
 H         3.035686        -1.667681         1.621518
 H         4.445072         1.950422         1.315950
 H         3.980107         2.105995        -0.408377
 H         2.398051         0.552527         1.864197
