19
Iteration:   158charge 0 multiplicity 1
 C         0.053330         0.800168        -0.259788
 C         1.457496         0.262359        -0.041048
 C         2.445565         0.090845        -1.129379
 C         3.363715        -0.400720         0.156024
 C         2.681627        -1.694908         0.505262
 O         1.363168        -1.096972         0.546423
 O         4.660978         0.167280         0.012139
 C         4.079007         1.426180         0.472693
 C         2.687336         0.736514         0.894411
 H        -0.426791         1.131551         0.642320
 H         0.340675         1.782932        -0.605050
 H        -0.613873         0.255760        -0.896722
 H         2.413076        -0.683479        -2.020652
 H         3.065343         0.998817        -1.542169
 H         2.742814        -2.583322        -0.210934
 H         2.849082        -1.920339         1.586516
 H         4.580666         1.820708         1.415869
 H         4.186141         2.121960        -0.295252
 H         2.545725         0.812961         1.907261
