19
Iteration:  2676
 C         0.033348         0.828131        -0.338236
 C         1.495571         0.369534        -0.004964
 C         2.406741        -0.064366        -1.179983
 C         3.343602        -0.377829         0.041400
 C         2.627256        -1.653615         0.574125
 O         1.352448        -1.011566         0.662842
 O         4.660575         0.114528         0.009573
 C         4.171467         1.365860         0.488103
 C         2.711380         0.801795         0.894711
 H        -0.407773         1.236854         0.577273
 H         0.165394         1.608561        -1.002408
 H        -0.470008        -0.064886        -0.690711
 H         2.121699        -0.787989        -1.945163
 H         2.998046         0.758067        -1.564530
 H         2.612002        -2.450392        -0.218330
 H         3.004334        -2.130430         1.539806
 H         4.856726         1.838080         1.324213
 H         4.178355         2.175305        -0.282595
 H         2.546990         0.451298         1.902329
