19
Iteration:  2698charge 0 multiplicity 1
 C         0.169050         0.896005        -0.234217
 C         1.490130         0.266862        -0.037864
 C         2.445655         0.054415        -1.121850
 C         3.358531        -0.368864         0.060337
 C         2.639128        -1.678986         0.585644
 O         1.280334        -1.097274         0.590233
 O         4.694824         0.071160         0.027444
 C         4.012361         1.392534         0.373563
 C         2.695111         0.790915         0.880520
 H        -0.160809         1.458700         0.647761
 H         0.357194         1.561210        -0.990262
 H        -0.438409         0.032671        -0.491410
 H         2.342633        -0.813769        -1.770609
 H         2.968256         0.870594        -1.561305
 H         2.691050        -2.537749        -0.142309
 H         2.869188        -1.994297         1.668118
 H         4.576892         1.873056         1.313082
 H         4.159858         2.130273        -0.439538
 H         2.595485         1.109221         1.906112
