19
Iteration:  3599
 C         0.195167         0.982538        -0.215272
 C         1.464484         0.182557        -0.031878
 C         2.443949        -0.028411        -1.185142
 C         3.382612        -0.439938         0.011285
 C         2.696272        -1.696039         0.549951
 O         1.239614        -1.101455         0.657194
 O         4.663637         0.101433         0.131901
 C         4.104380         1.514597         0.419686
 C         2.666633         0.776169         0.793801
 H        -0.337955         0.980344         0.754162
 H         0.584847         1.962426        -0.399256
 H        -0.480386         0.833637        -1.043610
 H         2.243143        -0.805449        -1.845183
 H         2.587367         0.897701        -1.682878
 H         2.659418        -2.563818        -0.190807
 H         3.062288        -2.039089         1.562417
 H         4.615525         2.171295         1.198583
 H         4.166317         2.010619        -0.739823
 H         2.291820         0.559795         1.755744
