19
Iteration:  4155charge 0 multiplicity 1
 C         0.101335         0.864908        -0.270246
 C         1.483856         0.378638        -0.044876
 C         2.481951         0.016414        -1.170595
 C         3.318155        -0.423772         0.016783
 C         2.587265        -1.681534         0.544893
 O         1.354878        -1.081105         0.711548
 O         4.653237         0.095459         0.041472
 C         4.136642         1.355200         0.460140
 C         2.720662         0.812237         0.830308
 H        -0.469257         1.100585         0.618307
 H         0.012879         1.736337        -0.934488
 H        -0.243891        -0.047633        -0.752779
 H         2.133488        -0.709123        -1.882877
 H         2.826894         0.981183        -1.532373
 H         2.672703        -2.367742        -0.259920
 H         2.867288        -1.986933         1.523045
 H         4.850203         1.689812         1.276284
 H         4.191988         2.192519        -0.276932
 H         2.358741         0.825407         1.878012
