19
Iteration:   820
 C         0.184938         0.985648        -0.249615
 C         1.497435         0.252349         0.045738
 C         2.462366        -0.011450        -1.192912
 C         3.392300        -0.411985         0.070400
 C         2.675318        -1.687961         0.564125
 O         1.324518        -1.167684         0.448552
 O         4.701814         0.228850         0.100233
 C         3.914192         1.478706         0.492828
 C         2.678293         0.621367         0.881671
 H        -0.340656         1.528607         0.678885
 H         0.481582         1.715090        -1.040457
 H        -0.623994         0.289059        -0.547489
 H         2.213166        -0.876119        -1.827753
 H         2.958173         0.852767        -1.652223
 H         2.910885        -2.457741        -0.184540
 H         2.880077        -1.929337         1.618583
 H         4.399807         1.939697         1.290957
 H         3.797172         2.214095        -0.258124
 H         2.533868         0.532230         1.891035
