19
Iteration:  3628charge 0 multiplicity 1
 C         0.228044         1.100781        -0.148799
 C         1.600649         0.350044        -0.054000
 C         2.475925        -0.154024        -1.134843
 C         3.393908        -0.495747         0.014434
 C         2.619567        -1.689332         0.619228
 O         1.312897        -1.123000         0.514707
 O         4.695459         0.241136         0.056477
 C         3.905317         1.419021         0.422443
 C         2.642725         0.651482         0.851008
 H        -0.068669         1.047554         0.909509
 H         0.438021         2.091867        -0.660906
 H        -0.642622         0.754829        -0.746846
 H         2.004338        -0.991635        -1.727743
 H         2.892135         0.561978        -1.904030
 H         2.670573        -2.565581         0.044226
 H         2.969776        -1.864780         1.638742
 H         4.408225         2.103065         1.138806
 H         3.815059         1.853842        -0.505449
 H         2.278201         0.442556         1.936584
