19
Iteration:  3066
 C         0.132443         1.099243        -0.256684
 C         1.468686         0.280039        -0.049494
 C         2.386962        -0.105203        -1.118131
 C         3.324053        -0.462015         0.069753
 C         2.701244        -1.688570         0.639222
 O         1.353703        -1.137222         0.516887
 O         4.716502         0.128786         0.014053
 C         4.097025         1.416679         0.458007
 C         2.623719         0.824889         0.859282
 H        -0.155613         1.077920         0.863347
 H         0.303136         2.121111        -0.625515
 H        -0.570890         0.388490        -0.812187
 H         2.039972        -0.831791        -1.934171
 H         2.777997         0.709595        -1.754182
 H         2.917582        -2.629219         0.036102
 H         3.022383        -2.063021         1.658417
 H         4.565715         1.735576         1.336815
 H         3.920090         2.046914        -0.372048
 H         2.535870         0.708558         1.978049
