19
Iteration:  2659charge 0 multiplicity 1
 C         0.054071         0.863603        -0.289548
 C         1.429956         0.338904        -0.069022
 C         2.424801        -0.006832        -1.231785
 C         3.356844        -0.433381        -0.001246
 C         2.643676        -1.611067         0.557134
 O         1.279379        -1.017615         0.713573
 O         4.781316         0.110110         0.061088
 C         4.115010         1.407244         0.543463
 C         2.818672         0.698126         0.817592
 H        -0.564457         0.923686         0.614827
 H        -0.110484         1.782365        -0.972480
 H        -0.524871         0.118415        -0.926784
 H         1.976841        -0.944533        -1.667046
 H         2.421055         0.722816        -2.048251
 H         2.627983        -2.603422         0.121960
 H         3.076760        -1.794326         1.513552
 H         4.567506         1.795497         1.413582
 H         4.182922         2.256745        -0.162732
 H         2.556298         0.697248         1.900592
