19
Iteration:  4987charge 0 multiplicity 1
 C         0.188294         1.018665        -0.083392
 C         1.493673         0.284485        -0.060246
 C         2.402870        -0.039211        -1.184581
 C         3.336225        -0.428139         0.119048
 C         2.717287        -1.723199         0.551405
 O         1.293196        -1.137497         0.514529
 O         4.665844         0.096578         0.070663
 C         4.124378         1.463082         0.404910
 C         2.631307         0.826357         0.819129
 H        -0.174033         1.263395         0.959640
 H         0.141000         1.843314        -0.851039
 H        -0.727132         0.335017        -0.487859
 H         2.139794        -0.796242        -1.976406
 H         3.003797         0.603780        -1.781229
 H         2.690144        -2.553414        -0.209907
 H         2.804878        -2.136819         1.564380
 H         4.378664         2.031894         1.293740
 H         4.490065         2.050148        -0.463159
 H         2.468224         0.698027         1.890482
