19
Iteration:  2602
 C         0.147810         1.082194        -0.078016
 C         1.478006         0.309670        -0.073580
 C         2.521853        -0.126306        -1.115648
 C         3.354090        -0.495957         0.163624
 C         2.639667        -1.678581         0.643718
 O         1.291308        -1.159364         0.419336
 O         4.744897         0.151729         0.129994
 C         3.932455         1.454425         0.266306
 C         2.718946         0.765407         0.788954
 H        -0.368887         0.910555         0.876609
 H         0.439495         2.069466        -0.106718
 H        -0.327684         0.610534        -0.971542
 H         2.067239        -0.915122        -1.745945
 H         3.063746         0.590346        -1.640153
 H         2.886635        -2.438212        -0.051158
 H         2.817114        -1.895467         1.657228
 H         4.376032         2.156625         1.024078
 H         3.800675         1.991318        -0.703017
 H         2.442167         0.817331         1.821930
