19
Iteration:  2131
 C         0.205117         0.955946        -0.216940
 C         1.503173         0.260251         0.001029
 C         2.538617         0.010525        -1.120839
 C         3.317307        -0.426615         0.077765
 C         2.692750        -1.712592         0.565164
 O         1.282414        -1.104139         0.560281
 O         4.685807         0.140594         0.082119
 C         3.974144         1.432357         0.410293
 C         2.643319         0.729111         0.764485
 H        -0.312702         1.178319         0.698142
 H         0.465987         1.943050        -0.682530
 H        -0.393246         0.454870        -0.902680
 H         2.274125        -0.672269        -1.971237
 H         2.906972         0.927958        -1.445671
 H         2.779974        -2.653128         0.008023
 H         3.106403        -1.883381         1.532497
 H         4.354201         1.895509         1.370137
 H         3.712273         2.136486        -0.431302
 H         2.409319         0.607346         1.871836
