19
Iteration:   218charge 0 multiplicity 1
 C         0.104104         0.918794        -0.103664
 C         1.495953         0.300177        -0.083424
 C         2.401669        -0.039270        -1.287141
 C         3.437470        -0.437923         0.015897
 C         2.710028        -1.694229         0.557888
 O         1.320041        -1.074984         0.511074
 O         4.724176         0.195746         0.172260
 C         3.971135         1.446236         0.529919
 C         2.687730         0.708498         0.763554
 H        -0.329645         0.531122         0.850104
 H         0.031909         2.058052        -0.153690
 H        -0.506108         0.574189        -0.990843
 H         2.280929        -0.750474        -2.065809
 H         2.869091         0.836742        -1.641150
 H         2.726151        -2.710610         0.058789
 H         2.929454        -1.847393         1.660183
 H         4.434012         2.073215         1.262569
 H         3.930151         2.001023        -0.449667
 H         2.521520         0.387133         1.914721
