19
Iteration:  4030
 C         0.130765         0.951038        -0.225683
 C         1.477381         0.295164        -0.001927
 C         2.440421        -0.030957        -1.185643
 C         3.366667        -0.390655         0.089421
 C         2.685833        -1.635583         0.550786
 O         1.259169        -1.106173         0.584178
 O         4.682106         0.090429         0.085974
 C         4.105849         1.369648         0.407268
 C         2.708950         0.793370         0.858945
 H        -0.455632         1.284755         0.670597
 H         0.513214         1.916141        -0.612098
 H        -0.533511         0.388466        -0.930466
 H         2.092968        -0.907401        -1.804845
 H         2.631583         0.687588        -1.977479
 H         2.725950        -2.509144        -0.054759
 H         3.040713        -1.903872         1.504392
 H         4.569867         1.868906         1.202506
 H         4.066409         1.973188        -0.478178
 H         2.585674         0.736871         1.941514
