19
Iteration:  2396charge 0 multiplicity 1
 C         0.143696         0.886318        -0.237006
 C         1.441579         0.264785        -0.041189
 C         2.490757        -0.013651        -1.204198
 C         3.299133        -0.414062         0.054277
 C         2.660336        -1.665244         0.645435
 O         1.276396        -1.104034         0.558720
 O         4.681940         0.127845         0.053357
 C         4.132448         1.418521         0.464198
 C         2.729538         0.810887         0.825344
 H        -0.424285         0.943048         0.698810
 H         0.402360         1.846573        -0.567623
 H        -0.475225         0.312897        -0.979034
 H         1.979582        -0.821144        -1.716531
 H         2.953786         0.867317        -1.794238
 H         2.677454        -2.562168        -0.032538
 H         2.985762        -1.837275         1.672238
 H         4.683765         1.765550         1.264311
 H         4.000934         2.346575        -0.187684
 H         2.401291         0.814474         1.862132
