19
Iteration:  3273
 C         0.092006         0.814412        -0.192437
 C         1.516784         0.340214         0.024623
 C         2.497858         0.066429        -1.133097
 C         3.367438        -0.388689         0.041253
 C         2.612942        -1.653629         0.600499
 O         1.232439        -1.117701         0.556471
 O         4.662638         0.079748         0.103825
 C         4.174554         1.404942         0.365386
 C         2.735938         0.835148         0.798403
 H        -0.489050         0.668524         0.706114
 H        -0.085005         1.736084        -0.616434
 H        -0.234288         0.263941        -1.038046
 H         2.050915        -0.686386        -1.808683
 H         2.701760         0.933189        -1.850584
 H         2.770917        -2.438784        -0.118722
 H         2.837062        -2.080164         1.533662
 H         4.724251         1.736005         1.275840
 H         4.100448         2.091889        -0.500571
 H         2.620551         0.867704         1.898456
