19
Iteration:  4482charge 0 multiplicity 1
 C         0.128516         0.893746        -0.124340
 C         1.522327         0.285514        -0.037698
 C         2.440453         0.011105        -1.280852
 C         3.371230        -0.455263        -0.008066
 C         2.601063        -1.681174         0.628281
 O         1.257359        -1.069731         0.545181
 O         4.750384         0.136107         0.093700
 C         4.014158         1.430487         0.452687
 C         2.737414         0.746028         0.838008
 H        -0.003587         1.400148         0.802928
 H         0.310187         1.831879        -0.629118
 H        -0.713123         0.332493        -0.454118
 H         2.133016        -0.770370        -2.023222
 H         2.917134         0.889679        -1.678963
 H         2.792746        -2.610524         0.085384
 H         2.806318        -1.954214         1.646644
 H         4.686476         1.969522         1.138347
 H         3.953972         1.907314        -0.539317
 H         2.499069         0.684814         1.908661
