19
Iteration:  2322charge 0 multiplicity 1
 C         0.095457         1.002193        -0.156808
 C         1.502611         0.279848        -0.105367
 C         2.434705        -0.073187        -1.227368
 C         3.400334        -0.472377         0.119699
 C         2.708976        -1.668531         0.617362
 O         1.291541        -1.113613         0.472351
 O         4.715818         0.141188         0.084936
 C         4.004726         1.432190         0.423341
 C         2.694335         0.773401         0.888751
 H        -0.112815         1.386724         0.807477
 H         0.217981         1.875419        -0.787475
 H        -0.761594         0.363434        -0.534613
 H         2.245153        -0.957113        -1.865906
 H         3.039137         0.784262        -1.631961
 H         2.797320        -2.588706         0.077170
 H         2.762612        -1.886226         1.717575
 H         4.335107         1.999196         1.310069
 H         4.163235         2.062983        -0.586448
 H         2.392521         0.743154         1.955123
