19
Iteration:  1442charge 0 multiplicity 1
 C         0.220693         1.014057        -0.226376
 C         1.469253         0.223654        -0.074501
 C         2.449377        -0.106797        -1.123714
 C         3.313113        -0.406549         0.004672
 C         2.671303        -1.615322         0.537453
 O         1.339383        -1.118470         0.521927
 O         4.671191         0.176625         0.153564
 C         3.990178         1.492327         0.484720
 C         2.698295         0.677159         0.857261
 H        -0.292407         0.851474         0.734605
 H         0.582294         1.970464        -0.444063
 H        -0.424015         0.617962        -1.022243
 H         2.146268        -0.982526        -1.757749
 H         2.863543         0.527413        -1.964180
 H         2.880258        -2.503067        -0.110103
 H         2.834421        -2.034742         1.562895
 H         4.249331         2.012761         1.379943
 H         4.107293         2.118839        -0.455673
 H         2.425398         0.659661         1.853978
