19
Iteration:   709
 C         0.151845         0.943983        -0.204122
 C         1.491496         0.216303        -0.042928
 C         2.549369        -0.045986        -1.196824
 C         3.373900        -0.391958         0.133404
 C         2.629157        -1.730511         0.557661
 O         1.317961        -1.151452         0.477696
 O         4.682828         0.212011         0.076927
 C         3.954163         1.530394         0.489542
 C         2.684709         0.700662         0.884847
 H        -0.518183         0.833536         0.706642
 H         0.299540         2.094060        -0.339938
 H        -0.315297         0.682266        -1.210615
 H         2.178807        -0.833608        -1.855763
 H         2.984699         0.894926        -1.699070
 H         2.775999        -2.550397        -0.144277
 H         3.018524        -1.984833         1.573827
 H         4.481870         2.051565         1.215335
 H         3.864140         2.187876        -0.345661
 H         2.490367         0.487712         1.864350
