19
Iteration:  2926charge 0 multiplicity 1
 C         0.190531         0.938537        -0.196895
 C         1.522267         0.277059        -0.042462
 C         2.390551        -0.101845        -1.192318
 C         3.325483        -0.396047         0.081979
 C         2.675450        -1.636358         0.511468
 O         1.301674        -1.033338         0.646805
 O         4.717948         0.103010         0.083033
 C         4.054209         1.407136         0.428039
 C         2.707353         0.794928         0.845468
 H        -0.514550         0.967719         0.706639
 H         0.273668         1.969373        -0.510900
 H        -0.336227         0.336186        -1.042262
 H         2.101673        -0.938389        -1.882338
 H         2.544715         0.725320        -1.848132
 H         2.720054        -2.401127        -0.297331
 H         2.974328        -2.197515         1.441177
 H         4.523561         1.850221         1.313544
 H         3.863594         2.036573        -0.614192
 H         2.438872         0.648883         1.937348
