19
Iteration:  4289
 C         0.044923         0.882599        -0.223011
 C         1.479821         0.221707        -0.017331
 C         2.462878         0.029499        -1.164451
 C         3.388813        -0.378299         0.043356
 C         2.638185        -1.640534         0.592261
 O         1.284189        -1.038969         0.646114
 O         4.718149         0.028180        -0.027627
 C         4.078370         1.419369         0.505156
 C         2.714979         0.803482         0.799909
 H        -0.509750         1.091688         0.668644
 H         0.124494         1.777516        -0.804814
 H        -0.508152         0.097863        -0.820834
 H         2.328055        -0.642389        -1.981043
 H         2.772486         0.928128        -1.611996
 H         2.575178        -2.499825        -0.045950
 H         3.083150        -1.751134         1.539275
 H         4.749556         1.696866         1.338316
 H         4.394006         2.150280        -0.322575
 H         2.544653         0.777070         1.813196
