19
Iteration:  4484charge 0 multiplicity 1
 C         0.138267         0.901822        -0.117953
 C         1.501967         0.290734        -0.049007
 C         2.441012         0.014378        -1.300353
 C         3.362828        -0.484910         0.014213
 C         2.597362        -1.678867         0.626210
 O         1.263910        -1.081001         0.547842
 O         4.744717         0.139998         0.092064
 C         4.015000         1.454580         0.439780
 C         2.749653         0.734725         0.844622
 H         0.000654         1.424089         0.823712
 H         0.375898         1.827801        -0.649887
 H        -0.785840         0.342106        -0.471235
 H         2.182624        -0.755626        -1.997417
 H         2.961880         0.938333        -1.676608
 H         2.823742        -2.592197         0.133815
 H         2.818624        -1.964857         1.619909
 H         4.672560         1.938600         1.173275
 H         3.894086         1.906744        -0.494682
 H         2.532026         0.708822         1.905285
