19
Iteration:  2794
 C         0.133461         0.877988        -0.315106
 C         1.541961         0.388276         0.018421
 C         2.317620         0.019489        -1.147028
 C         3.378219        -0.442167         0.088166
 C         2.623043        -1.612715         0.607545
 O         1.315042        -1.064350         0.566673
 O         4.695884         0.097804         0.031222
 C         4.082045         1.403066         0.405617
 C         2.753983         0.712797         0.885250
 H        -0.483333         0.657900         0.621395
 H         0.072081         1.937684        -0.539807
 H        -0.198807         0.178475        -1.064677
 H         2.290553        -0.930885        -1.616103
 H         2.667060         0.846814        -1.736720
 H         2.616916        -2.582433         0.128582
 H         2.908109        -1.901979         1.650660
 H         4.649629         1.954173         1.027301
 H         3.942696         1.998110        -0.430668
 H         2.685973         0.659735         1.975963
