19
Iteration:  1344
 C         0.072429         0.870320        -0.313992
 C         1.425146         0.288201        -0.008224
 C         2.504878         0.046142        -1.235122
 C         3.340270        -0.396781         0.014404
 C         2.743045        -1.691596         0.525082
 O         1.304083        -1.054704         0.642332
 O         4.707628         0.084018         0.104034
 C         4.061952         1.414149         0.560248
 C         2.641147         0.786400         0.821957
 H        -0.243302         1.183181         0.739255
 H         0.282159         1.736118        -0.943478
 H        -0.658213         0.080209        -0.620816
 H         2.448684        -0.778724        -2.045078
 H         3.139630         0.910624        -1.758025
 H         2.633661        -2.540889        -0.144638
 H         3.105274        -1.855819         1.566658
 H         4.510891         1.737727         1.445841
 H         3.906757         2.062222        -0.294715
 H         2.506959         0.704937         1.841358
