19
Iteration:   955charge 0 multiplicity 1
 C         0.139579         0.966407        -0.214425
 C         1.517990         0.224388        -0.103988
 C         2.438392        -0.090757        -1.179408
 C         3.424371        -0.478929        -0.012950
 C         2.718454        -1.675786         0.516178
 O         1.290747        -1.037986         0.562325
 O         4.734266         0.232961         0.133531
 C         3.917974         1.501883         0.561091
 C         2.682887         0.615335         0.828322
 H        -0.500232         1.094870         0.716735
 H         0.319408         1.989726        -0.667336
 H        -0.549229         0.270969        -0.789124
 H         2.251771        -0.765759        -1.994976
 H         2.909043         0.817625        -1.625413
 H         2.563182        -2.620218         0.001610
 H         3.057307        -1.726902         1.507829
 H         4.453567         2.048160         1.417874
 H         3.806428         2.041788        -0.317562
 H         2.505019         0.489910         1.975427
