19
Iteration:  3243
 C         0.056054         0.859627        -0.272766
 C         1.449174         0.298407        -0.061320
 C         2.454241         0.061388        -1.185463
 C         3.400028        -0.418262         0.020731
 C         2.686830        -1.591215         0.577755
 O         1.337624        -1.005445         0.679484
 O         4.686836         0.040447         0.116383
 C         4.065734         1.372377         0.433111
 C         2.752187         0.697560         0.824145
 H        -0.506707         0.877798         0.670900
 H         0.102764         1.911854        -0.677294
 H        -0.494933         0.170898        -1.057127
 H         2.011774        -0.679633        -1.869126
 H         2.649047         1.103159        -1.610125
 H         2.685333        -2.401141        -0.250159
 H         3.000332        -1.935386         1.615804
 H         4.674356         1.886835         1.075393
 H         3.919826         2.083474        -0.440727
 H         2.490104         0.571795         1.878649
