19
Iteration:  2768
 C         0.130022         0.990416        -0.163149
 C         1.482620         0.241048        -0.092836
 C         2.510652        -0.114907        -1.234351
 C         3.313346        -0.469559         0.085390
 C         2.695033        -1.650730         0.645807
 O         1.269599        -1.083193         0.580190
 O         4.660200         0.136216         0.076493
 C         4.075514         1.474286         0.386081
 C         2.653377         0.757385         0.763681
 H        -0.238978         0.923544         0.860215
 H         0.493539         2.075743        -0.045086
 H        -0.673305         0.647949        -0.832449
 H         2.432669        -0.984784        -1.922029
 H         3.073998         0.788386        -1.586506
 H         2.612995        -2.560232         0.036440
 H         2.993206        -1.879797         1.651904
 H         4.613117         1.936148         1.309671
 H         4.131624         2.335905        -0.444184
 H         2.639520         0.639668         1.868933
