19
Iteration:  4455
 C         0.018725         0.845601        -0.178832
 C         1.508187         0.383188        -0.020210
 C         2.394379        -0.037444        -1.218751
 C         3.323151        -0.384738         0.064344
 C         2.664096        -1.619914         0.525369
 O         1.342992        -1.031306         0.589654
 O         4.652681         0.027343         0.102777
 C         4.113453         1.422339         0.454720
 C         2.776241         0.744229         0.807746
 H        -0.422039         1.140029         0.814517
 H         0.134509         1.849936        -0.661823
 H        -0.620983         0.154260        -0.793153
 H         2.181278        -0.921376        -1.826583
 H         2.938865         0.684836        -1.902221
 H         2.900415        -2.449062        -0.252878
 H         2.972743        -1.905525         1.598388
 H         4.762904         1.785304         1.300843
 H         4.348469         2.187739        -0.352297
 H         2.579335         0.807604         1.883192
