19
Iteration:  3402
 C         0.015380         0.843225        -0.235900
 C         1.461529         0.280985        -0.063729
 C         2.460105         0.030315        -1.191094
 C         3.387926        -0.411955        -0.065457
 C         2.645474        -1.596201         0.580496
 O         1.278276        -1.039071         0.658423
 O         4.689911         0.045638         0.151247
 C         4.163208         1.404957         0.472381
 C         2.760501         0.803702         0.738948
 H        -0.456770         0.670182         0.848267
 H        -0.083445         1.968426        -0.420404
 H        -0.637816         0.058783        -0.740324
 H         2.319773        -0.644113        -2.040490
 H         2.734406         1.060195        -1.585684
 H         2.585539        -2.438259        -0.179287
 H         2.988578        -1.928434         1.637436
 H         4.487174         1.983988         1.424119
 H         4.291494         2.013917        -0.394203
 H         2.840224         0.400856         1.765796
