19
Iteration:  2306charge 0 multiplicity 1
 C         0.160817         1.069642        -0.157407
 C         1.465596         0.278709        -0.042734
 C         2.471931        -0.185739        -1.176797
 C         3.365671        -0.392473         0.049344
 C         2.677702        -1.663047         0.648953
 O         1.323788        -1.140420         0.404877
 O         4.709862         0.184299         0.125404
 C         4.008588         1.462566         0.474377
 C         2.658765         0.702706         0.813715
 H        -0.290604         1.265052         0.866966
 H         0.362794         2.058717        -0.656822
 H        -0.578744         0.517290        -0.667095
 H         2.035201        -1.104692        -1.575584
 H         2.650960         0.498211        -1.995677
 H         2.698183        -2.616987         0.025805
 H         2.940125        -1.794500         1.679798
 H         4.808630         1.959488         1.033480
 H         3.735390         2.123296        -0.327137
 H         2.681592         0.632434         1.912010
