19
Iteration:  3461
 C         0.210496         1.021409        -0.159210
 C         1.512257         0.265120        -0.025823
 C         2.502122        -0.037853        -1.198804
 C         3.369522        -0.435095         0.108312
 C         2.571948        -1.721617         0.631390
 O         1.265192        -1.145034         0.543524
 O         4.730761         0.220031         0.004176
 C         4.064698         1.459549         0.365443
 C         2.597943         0.695659         0.910444
 H        -0.322785         0.954774         0.833245
 H         0.397283         2.026730        -0.519190
 H        -0.468362         0.626903        -0.976247
 H         2.324683        -0.922174        -1.944663
 H         3.138106         0.710569        -1.726375
 H         2.656155        -2.558343        -0.050311
 H         2.728019        -2.040687         1.614631
 H         4.593996         1.954279         1.167603
 H         3.850174         2.220742        -0.601651
 H         2.507317         0.371750         1.956470
