19
Iteration:   600
 C         0.048705         0.816273        -0.159800
 C         1.510668         0.321958        -0.079202
 C         2.486314         0.047353        -1.218246
 C         3.361426        -0.381116         0.021848
 C         2.705382        -1.682016         0.520258
 O         1.337167        -1.109960         0.503503
 O         4.748761         0.073167         0.202680
 C         3.996170         1.489238         0.470615
 C         2.607261         0.789589         0.887236
 H        -0.536223         0.985247         0.748994
 H         0.075811         1.811815        -0.768142
 H        -0.473707         0.113971        -0.901466
 H         2.369386        -0.789699        -1.972392
 H         2.888320         0.924072        -1.805914
 H         2.657951        -2.560744        -0.102773
 H         3.077930        -1.964262         1.519004
 H         4.548665         1.810999         1.333651
 H         4.285967         2.147310        -0.475617
 H         2.429524         0.803971         1.915179
