19
Iteration:  1082charge 0 multiplicity 1
 C         0.156289         0.876012        -0.278803
 C         1.485132         0.297576        -0.023412
 C         2.451882         0.002139        -1.186610
 C         3.373904        -0.342926         0.070780
 C         2.755613        -1.720429         0.582466
 O         1.308068        -1.103114         0.562462
 O         4.626606         0.172877         0.065369
 C         4.074158         1.399365         0.483900
 C         2.615594         0.737779         0.862992
 H        -0.568664         0.769528         0.530531
 H         0.170307         1.898490        -0.393140
 H        -0.212692         0.598447        -1.219155
 H         2.268746        -0.875491        -1.850851
 H         2.781947         0.945942        -1.659212
 H         2.893263        -2.594968        -0.012418
 H         3.044117        -1.989066         1.633035
 H         4.467680         1.806526         1.353584
 H         4.187157         2.181985        -0.340814
 H         2.349391         0.658303         1.875163
