19
Iteration:  4516
 C         0.231337         1.049018        -0.119164
 C         1.464470         0.309557        -0.012462
 C         2.444494        -0.127062        -1.178362
 C         3.367740        -0.507750         0.025756
 C         2.734833        -1.672575         0.560254
 O         1.288864        -1.137259         0.499206
 O         4.707981         0.161410         0.061966
 C         3.950893         1.391715         0.444754
 C         2.636700         0.806216         0.868233
 H        -0.007371         1.257486         0.898258
 H         0.619437         1.869657        -0.707406
 H        -0.719010         0.782788        -0.618825
 H         2.178450        -1.000796        -1.753982
 H         2.811842         0.663449        -1.921815
 H         2.899819        -2.481036        -0.159124
 H         2.925135        -1.852104         1.597825
 H         4.480174         1.984911         1.223444
 H         3.770644         2.062513        -0.445069
 H         2.413668         0.841567         1.935718
