19
Iteration:  1785charge 0 multiplicity 1
 C         0.094197         0.810901        -0.258352
 C         1.503706         0.330642        -0.027637
 C         2.462402        -0.011643        -1.203638
 C         3.298777        -0.395862         0.024626
 C         2.683622        -1.638506         0.548732
 O         1.310775        -1.071550         0.539909
 O         4.684655         0.104484         0.176972
 C         4.139182         1.421521         0.502685
 C         2.643349         0.803260         0.789949
 H        -0.334646         0.745366         0.718171
 H         0.164480         1.870449        -0.450666
 H        -0.461060         0.217715        -0.905336
 H         2.116503        -0.744044        -1.898717
 H         2.895961         0.967187        -1.537482
 H         2.706747        -2.513133        -0.090484
 H         2.885872        -2.066402         1.529907
 H         4.784111         1.855903         1.376052
 H         4.244422         2.016338        -0.463805
 H         2.455196         0.791293         1.833640
