19
Iteration:  2077
 C        -0.016621         0.841712        -0.225632
 C         1.513071         0.310605        -0.047165
 C         2.514777        -0.054735        -1.269851
 C         3.389662        -0.399821         0.012797
 C         2.656825        -1.628438         0.605801
 O         1.304045        -1.032811         0.531150
 O         4.719126         0.086264         0.125147
 C         4.129142         1.422937         0.534110
 C         2.702196         0.771370         0.825260
 H        -0.459881         0.556767         0.734140
 H        -0.159981         1.969674        -0.297173
 H        -0.556847         0.383984        -1.003520
 H         1.905247        -0.841664        -1.823662
 H         2.564579         0.774518        -1.892467
 H         2.767726        -2.428467        -0.138376
 H         2.957024        -1.858700         1.594169
 H         4.452997         1.822793         1.503861
 H         4.304048         2.250545        -0.254356
 H         2.481870         0.860954         1.947794
