19
Iteration:  1514
 C         0.022462         0.855781        -0.217942
 C         1.492114         0.380885        -0.141234
 C         2.439112        -0.033734        -1.171711
 C         3.347644        -0.387459         0.105738
 C         2.687210        -1.642336         0.519568
 O         1.341875        -1.096181         0.542847
 O         4.693620         0.137740         0.200772
 C         4.111993         1.379844         0.514189
 C         2.671510         0.774908         0.745000
 H        -0.142370         1.099308         0.867343
 H         0.157147         1.794359        -0.882990
 H        -0.677105         0.082629        -0.624780
 H         2.078818        -0.804446        -1.776731
 H         2.859670         0.707364        -1.925147
 H         2.746956        -2.532529        -0.142253
 H         3.150700        -1.834148         1.482102
 H         4.630446         1.821134         1.407698
 H         4.276166         2.114192        -0.308722
 H         2.374999         0.465612         1.861497
