19
Iteration:  1740charge 0 multiplicity 1
 C         0.160526         1.033887        -0.173657
 C         1.507270         0.301042        -0.123000
 C         2.432007        -0.097107        -1.166065
 C         3.385984        -0.488437         0.079321
 C         2.702027        -1.694165         0.590540
 O         1.270430        -1.142210         0.460870
 O         4.671160         0.241052         0.139629
 C         4.006933         1.436874         0.453105
 C         2.716196         0.711369         0.854916
 H        -0.587889         0.886583         0.546433
 H         0.355629         2.096447        -0.440500
 H        -0.194896         0.512747        -1.008475
 H         2.059385        -0.968030        -1.648069
 H         2.943919         0.747935        -1.788163
 H         2.824217        -2.679145         0.159048
 H         3.055663        -1.940403         1.639286
 H         4.426486         1.962913         1.427521
 H         3.896539         2.168934        -0.459191
 H         2.511841         0.698911         1.876830
