19
Iteration:  1369
 C         0.083607         0.864203        -0.259185
 C         1.449905         0.296032        -0.052390
 C         2.441224        -0.019480        -1.164907
 C         3.411201        -0.387011         0.111460
 C         2.615532        -1.642107         0.553560
 O         1.334436        -1.113801         0.495101
 O         4.698567         0.081496         0.135274
 C         4.113868         1.518509         0.475487
 C         2.695521         0.780202         0.830546
 H        -0.341498         0.953974         0.776039
 H         0.205815         1.864009        -0.831070
 H        -0.521527         0.043417        -0.765259
 H         2.059424        -0.761905        -1.993450
 H         2.862159         0.853314        -1.718372
 H         2.544575        -2.530271        -0.089632
 H         2.856178        -1.921062         1.600539
 H         4.675323         1.735441         1.446186
 H         4.054510         2.203639        -0.327441
 H         2.637544         0.662815         1.978301
