19
Iteration:  2190
 C         0.149673         0.953953        -0.162235
 C         1.441014         0.234821        -0.139592
 C         2.567170        -0.027137        -1.270778
 C         3.319399        -0.421388         0.083005
 C         2.676163        -1.660215         0.588235
 O         1.349328        -1.072252         0.604602
 O         4.701161         0.119156         0.121927
 C         4.001908         1.434839         0.460247
 C         2.617285         0.696746         0.778376
 H         0.001174         1.265691         0.907431
 H         0.280380         1.868408        -0.705137
 H        -0.813665         0.394277        -0.466908
 H         2.335681        -0.699375        -2.091253
 H         2.860686         1.010018        -1.729051
 H         2.672077        -2.598731         0.052521
 H         3.004830        -1.713223         1.654629
 H         4.515920         1.803842         1.295296
 H         4.009154         2.261477        -0.297280
 H         2.344446         0.621742         1.803867
