19
Iteration:  1499charge 0 multiplicity 1
 C         0.103928         0.846183        -0.212122
 C         1.440892         0.221144        -0.049180
 C         2.496771        -0.014507        -1.264663
 C         3.351891        -0.352352         0.018637
 C         2.690365        -1.630335         0.561906
 O         1.289978        -1.074869         0.524936
 O         4.692708         0.063286         0.148275
 C         4.126045         1.442531         0.509016
 C         2.664009         0.827042         0.885430
 H        -0.375674         1.219005         0.682586
 H        -0.072896         1.669474        -0.884572
 H        -0.478579         0.065970        -0.684216
 H         2.363142        -0.892428        -2.021315
 H         2.807269         0.902452        -1.638005
 H         2.768131        -2.356801        -0.200198
 H         2.795796        -1.949400         1.602249
 H         4.587452         1.847092         1.425127
 H         4.211915         2.183584        -0.241034
 H         2.473406         0.927283         1.898029
