19
Iteration:  4221
 C         0.257337         1.079645        -0.050346
 C         1.497456         0.273601        -0.094227
 C         2.479914        -0.082974        -1.225327
 C         3.426699        -0.479218         0.114674
 C         2.656509        -1.704208         0.641912
 O         1.263729        -1.205673         0.524084
 O         4.661626         0.187079         0.122995
 C         4.020655         1.458632         0.319482
 C         2.618655         0.727237         0.745906
 H        -0.269305         1.123343         0.948904
 H         0.312973         2.222931        -0.119597
 H        -0.423133         0.569671        -0.785952
 H         2.252919        -0.800250        -2.006901
 H         2.965344         0.744071        -1.760214
 H         2.744971        -2.497313        -0.100892
 H         2.579197        -1.994421         1.683185
 H         4.577358         2.124611         1.058697
 H         3.730110         2.211319        -0.461446
 H         2.526691         0.821830         1.861309
