19
Iteration:  1630
 C         0.042950         0.890480        -0.246116
 C         1.549320         0.263038        -0.104013
 C         2.479866        -0.007565        -1.194027
 C         3.372223        -0.453258         0.082766
 C         2.651878        -1.664673         0.578671
 O         1.302390        -1.054771         0.574026
 O         4.698876         0.157018         0.159085
 C         4.115278         1.396622         0.480663
 C         2.650722         0.764325         0.758354
 H        -0.323299         0.882423         0.781768
 H        -0.080058         1.905531        -0.668098
 H        -0.615337         0.274860        -0.819159
 H         2.369615        -0.643304        -2.130002
 H         2.744678         1.018485        -1.558354
 H         2.526801        -2.569232        -0.083568
 H         3.095861        -1.986060         1.650463
 H         4.415879         1.873007         1.499285
 H         4.306932         2.231375        -0.347188
 H         2.482953         0.618471         1.767610
