19
Iteration:  2398charge 0 multiplicity 1
 C         0.153112         0.888049        -0.220734
 C         1.465634         0.243330        -0.063466
 C         2.492273         0.010589        -1.191807
 C         3.292195        -0.419959         0.061948
 C         2.664692        -1.652566         0.651048
 O         1.271595        -1.100608         0.558871
 O         4.683722         0.127901         0.042350
 C         4.117242         1.412907         0.455075
 C         2.719351         0.797410         0.822020
 H        -0.423461         0.938315         0.650268
 H         0.449926         1.851936        -0.550373
 H        -0.457639         0.365473        -0.974385
 H         1.994912        -0.857656        -1.723640
 H         2.929761         0.829784        -1.767144
 H         2.698848        -2.505909         0.002209
 H         2.910459        -1.858439         1.718362
 H         4.659907         1.800226         1.288385
 H         4.007757         2.379923        -0.192678
 H         2.379319         0.769788         1.855107
