19
Iteration:  2402
 C         0.177866         0.891810        -0.201277
 C         1.518240         0.215243        -0.099716
 C         2.473920         0.023258        -1.163328
 C         3.302319        -0.423304         0.079633
 C         2.666337        -1.620537         0.666185
 O         1.269454        -1.090124         0.556581
 O         4.682533         0.128254         0.019046
 C         4.073508         1.416258         0.437590
 C         2.687118         0.762252         0.817280
 H        -0.482064         0.943415         0.718780
 H         0.478035         1.959291        -0.550026
 H        -0.426126         0.473519        -1.000133
 H         2.156705        -0.837667        -1.797993
 H         2.885521         0.814891        -1.741028
 H         2.760195        -2.516021         0.034852
 H         2.773552        -1.889392         1.733641
 H         4.621379         1.843912         1.400636
 H         4.083913         2.255765        -0.243912
 H         2.413393         0.669840         1.892024
