19
Iteration:  3513charge 0 multiplicity 1
 C         0.152894         1.075346        -0.193049
 C         1.492366         0.265393        -0.111044
 C         2.367287        -0.110687        -1.191208
 C         3.352851        -0.446563         0.047276
 C         2.719536        -1.643977         0.535678
 O         1.362158        -1.125216         0.585306
 O         4.659592         0.149786         0.149919
 C         4.056292         1.387927         0.449980
 C         2.682898         0.751541         0.818187
 H        -0.193537         1.278196         0.856595
 H         0.392707         1.933003        -0.805065
 H        -0.781682         0.610254        -0.548011
 H         2.283421        -0.973146        -1.854124
 H         2.641398         0.705982        -1.885135
 H         2.854939        -2.556132        -0.135394
 H         2.939721        -1.828965         1.601632
 H         4.540383         1.843618         1.278483
 H         3.904493         2.038838        -0.284094
 H         2.471184         0.714314         1.840026
