19
Iteration:  1012charge 0 multiplicity 1
 C         0.122866         0.959022        -0.122664
 C         1.405236         0.292576        -0.060036
 C         2.530040         0.052776        -1.235344
 C         3.407281        -0.392043         0.123571
 C         2.691937        -1.684632         0.604153
 O         1.362242        -1.151080         0.436295
 O         4.698966         0.125106         0.162146
 C         3.968939         1.447501         0.408780
 C         2.634496         0.707320         0.819882
 H        -0.276539         1.250354         0.821599
 H         0.051904         1.806819        -0.879329
 H        -0.496920         0.185864        -0.644349
 H         2.334384        -0.868172        -1.754914
 H         2.879548         0.853954        -1.909298
 H         2.802261        -2.564507         0.033934
 H         2.998503        -1.885842         1.571769
 H         4.377761         2.027121         1.289393
 H         4.038147         2.010647        -0.414519
 H         2.472284         0.518237         1.946886
