19
Iteration:  4369
 C         0.228569         1.078866        -0.090817
 C         1.481920         0.201443        -0.033648
 C         2.434939        -0.135231        -1.253756
 C         3.338003        -0.377280         0.058914
 C         2.676558        -1.722787         0.593760
 O         1.278959        -1.136429         0.535820
 O         4.681025         0.117915         0.111831
 C         3.965950         1.525022         0.363385
 C         2.692683         0.776546         0.807395
 H        -0.194411         1.199943         0.925218
 H         0.489335         2.091464        -0.404968
 H        -0.542926         0.762834        -0.729685
 H         2.519437        -1.027250        -1.934182
 H         2.988215         0.809905        -1.587967
 H         2.884811        -2.644327         0.026648
 H         2.843872        -2.157816         1.623029
 H         4.700411         1.827585         1.121807
 H         3.846174         2.167477        -0.594978
 H         2.564127         0.614525         1.944614
