19
Iteration:  1711
 C         0.223106         1.027695        -0.165110
 C         1.496044         0.175096        -0.170898
 C         2.503772        -0.119740        -1.174369
 C         3.342675        -0.447192         0.040137
 C         2.677906        -1.629094         0.525843
 O         1.313423        -1.103935         0.577262
 O         4.667560         0.194169         0.129977
 C         3.938217         1.458262         0.517943
 C         2.651525         0.723435         0.822502
 H        -0.305582         1.230598         0.813360
 H         0.583179         1.959917        -0.628134
 H        -0.433005         0.546687        -0.969840
 H         2.258779        -0.997302        -1.795148
 H         2.963959         0.764834        -1.680004
 H         2.595766        -2.500392        -0.162136
 H         3.125729        -1.878103         1.561329
 H         4.486273         2.026246         1.313791
 H         3.909206         2.056584        -0.375147
 H         2.407154         0.593218         1.951697
