19
Iteration:  4873charge 0 multiplicity 1
 C         0.107498         0.887509        -0.138828
 C         1.515798         0.302538         0.016328
 C         2.366479         0.030857        -1.243147
 C         3.427829        -0.453279        -0.060022
 C         2.567716        -1.614241         0.620256
 O         1.212917        -1.059620         0.557234
 O         4.739752         0.110075         0.107314
 C         4.160348         1.394880         0.474461
 C         2.784429         0.708266         0.807520
 H        -0.396138         0.807340         0.848643
 H        -0.016877         1.900493        -0.586674
 H        -0.196991         0.094693        -0.897654
 H         2.059267        -0.638801        -2.045287
 H         2.602839         0.981691        -1.837077
 H         2.705484        -2.446728        -0.036157
 H         2.764449        -1.811590         1.699342
 H         4.665546         2.112314         1.164256
 H         4.054568         2.054099        -0.455002
 H         2.644655         0.569100         1.893537
