19
Iteration:   433charge 0 multiplicity 1
 C         0.054970         0.934189        -0.255748
 C         1.490476         0.272443        -0.060990
 C         2.580673         0.030373        -1.208072
 C         3.378673        -0.419265         0.015600
 C         2.613972        -1.645481         0.622016
 O         1.361573        -1.173398         0.555299
 O         4.681393         0.229498         0.058488
 C         3.998145         1.458589         0.542049
 C         2.699459         0.585611         0.882540
 H        -0.344925         1.233210         0.776263
 H         0.180775         1.818276        -0.867155
 H        -0.612801         0.276494        -0.857338
 H         2.178900        -0.555658        -2.096764
 H         2.855673         0.953882        -1.715251
 H         2.790589        -2.482642        -0.002576
 H         2.895879        -1.804530         1.652196
 H         4.560825         2.005626         1.423792
 H         3.829563         2.175762        -0.344758
 H         2.474206         0.390084         1.860453
