19
Iteration:  1584charge 0 multiplicity 1
 C         0.210584         1.044637        -0.242524
 C         1.507708         0.306458        -0.027680
 C         2.435849        -0.057649        -1.145091
 C         3.354709        -0.451248         0.078646
 C         2.760343        -1.721474         0.594914
 O         1.307126        -1.146470         0.481373
 O         4.658039         0.219096         0.132925
 C         3.991200         1.420757         0.431331
 C         2.623071         0.695150         0.844557
 H        -0.431612         0.973425         0.639186
 H         0.566857         2.004458        -0.404522
 H        -0.305190         0.728484        -1.169516
 H         2.024612        -0.976517        -1.684989
 H         2.977458         0.481720        -1.817066
 H         3.020117        -2.628008        -0.087446
 H         2.670539        -1.986105         1.671132
 H         4.530157         1.942738         1.215163
 H         3.734405         2.220970        -0.412948
 H         2.456778         0.746611         1.910376
