19
Iteration:  3564
 C         0.032428         0.812642        -0.212096
 C         1.517961         0.401283        -0.064923
 C         2.461693         0.006851        -1.159705
 C         3.343176        -0.459538         0.045013
 C         2.691796        -1.653934         0.630682
 O         1.313067        -0.970207         0.506206
 O         4.691862         0.013530         0.060720
 C         4.136773         1.437165         0.460319
 C         2.701503         0.768713         0.878183
 H        -0.566632         0.734229         0.705307
 H        -0.084730         1.867321        -0.564677
 H        -0.430537         0.051027        -0.844891
 H         1.886950        -0.686940        -1.764344
 H         2.817714         0.780334        -1.838647
 H         2.593060        -2.561189         0.007462
 H         2.996295        -1.923285         1.683464
 H         4.617342         2.050933         1.308074
 H         4.151278         2.084001        -0.629606
 H         2.609960         0.664320         2.032973
