19
Iteration:  2408charge 0 multiplicity 1
 C         0.215015         0.934570        -0.188026
 C         1.527802         0.227307        -0.096008
 C         2.456964        -0.032084        -1.158375
 C         3.374562        -0.407222         0.103904
 C         2.647112        -1.605311         0.678904
 O         1.287010        -1.072798         0.541447
 O         4.667957         0.130108        -0.006810
 C         4.005097         1.428244         0.450592
 C         2.635273         0.707884         0.823268
 H        -0.344596         0.917830         0.713996
 H         0.342809         1.952082        -0.432982
 H        -0.393770         0.580059        -1.051861
 H         2.454174        -0.750519        -2.008522
 H         2.835062         0.904610        -1.646276
 H         2.817130        -2.543287         0.118980
 H         2.747060        -1.865058         1.745898
 H         4.422686         1.747550         1.336651
 H         4.207878         2.042825        -0.506925
 H         2.575412         0.565152         1.900365
