19
Iteration:  1774
 C         0.164256         0.829195        -0.202766
 C         1.466417         0.225128        -0.121970
 C         2.475379         0.057662        -1.194146
 C         3.367642        -0.379699         0.133105
 C         2.674558        -1.639013         0.580316
 O         1.269233        -1.057430         0.530888
 O         4.651531         0.079797         0.127573
 C         4.069506         1.377102         0.455154
 C         2.712153         0.779022         0.845047
 H        -0.424025         0.712660         0.675844
 H         0.178023         1.863698        -0.530922
 H        -0.338318         0.427315        -1.014119
 H         2.366527        -0.590057        -2.039615
 H         2.825356         1.001514        -1.755042
 H         2.612659        -2.472743        -0.087210
 H         3.172486        -1.660945         1.559005
 H         4.502581         1.996452         1.365005
 H         4.044476         2.136587        -0.417110
 H         2.455692         0.738958         1.872200
