19
Iteration:  4247charge 0 multiplicity 1
 C         0.192236         0.990224        -0.143757
 C         1.476735         0.271019        -0.015940
 C         2.448490        -0.116479        -1.177959
 C         3.384962        -0.448040         0.004834
 C         2.697499        -1.659646         0.561494
 O         1.293542        -1.048413         0.529075
 O         4.731133         0.093669         0.121642
 C         3.971408         1.492161         0.369692
 C         2.674147         0.722666         0.867189
 H        -0.311546         1.046648         0.768809
 H         0.365380         2.009421        -0.222263
 H        -0.442745         0.625158        -0.908019
 H         2.020038        -1.057519        -1.565214
 H         2.736732         0.620165        -1.953779
 H         2.674113        -2.444120        -0.147165
 H         2.772279        -1.896031         1.590023
 H         4.471019         2.086054         1.115141
 H         3.768082         2.170857        -0.497254
 H         2.698818         0.599620         1.918460
