19
Iteration:  1661
 C         0.070490         0.839480        -0.244531
 C         1.556178         0.319158        -0.013699
 C         2.464819        -0.030992        -1.182884
 C         3.354249        -0.363525         0.083407
 C         2.702778        -1.584222         0.576933
 O         1.272419        -1.057486         0.418028
 O         4.653910         0.095749         0.156626
 C         4.148717         1.366061         0.454496
 C         2.639566         0.794825         0.906564
 H        -0.208361         1.151637         0.740476
 H        -0.047293         1.660167        -0.910742
 H        -0.422994        -0.037664        -0.625967
 H         2.178797        -1.000161        -1.704648
 H         2.738397         0.752425        -1.798170
 H         2.722832        -2.438067        -0.138779
 H         3.036401        -1.760777         1.595340
 H         4.522047         1.906989         1.322770
 H         4.101891         2.085447        -0.461600
 H         2.603344         0.492156         1.920253
