19
Iteration:  4961
 C         0.205076         1.044580        -0.085418
 C         1.528953         0.265666        -0.052552
 C         2.506207        -0.024158        -1.217097
 C         3.363704        -0.446486        -0.029343
 C         2.667642        -1.608913         0.597611
 O         1.293025        -1.112298         0.530020
 O         4.659085         0.141649         0.090705
 C         3.972901         1.388203         0.401574
 C         2.660373         0.668408         0.858467
 H        -0.024465         1.184693         0.958379
 H         0.364799         1.969454        -0.610639
 H        -0.721012         0.694181        -0.463837
 H         2.060677        -0.877361        -1.781255
 H         2.957658         0.604575        -2.013076
 H         2.675242        -2.595606         0.130355
 H         2.919350        -1.841408         1.644985
 H         4.395377         1.999751         1.223679
 H         4.001902         2.071394        -0.520352
 H         2.566914         0.381282         1.914939
