19
Iteration:   682charge 0 multiplicity 1
 C         0.196900         0.996167        -0.231647
 C         1.500752         0.234116        -0.045278
 C         2.463024        -0.090021        -1.175747
 C         3.400322        -0.406646         0.038922
 C         2.751624        -1.752500         0.508207
 O         1.316246        -1.146016         0.517352
 O         4.659384         0.225623         0.137575
 C         3.924342         1.507453         0.539628
 C         2.633557         0.725159         0.837408
 H        -0.314069         1.234747         0.672257
 H         0.599983         1.891894        -0.606139
 H        -0.470877         0.661886        -1.013317
 H         1.923830        -0.961149        -1.592243
 H         2.719114         0.718012        -1.795001
 H         2.702674        -2.585640        -0.264727
 H         3.286589        -2.016261         1.440521
 H         4.492588         1.977683         1.429787
 H         3.968611         2.245498        -0.307004
 H         2.323817         0.503208         1.997002
