19
Iteration:  2667charge 0 multiplicity 1
 C         0.029424         0.845253        -0.302687
 C         1.457203         0.366248        -0.089900
 C         2.400297        -0.024373        -1.199533
 C         3.318930        -0.397209        -0.031046
 C         2.628819        -1.632012         0.575462
 O         1.332492        -1.035126         0.711569
 O         4.744061         0.141812         0.038535
 C         4.163634         1.369521         0.530224
 C         2.766373         0.737896         0.895682
 H        -0.611999         1.139422         0.538299
 H         0.041502         1.630102        -1.006130
 H        -0.496782         0.002629        -0.861385
 H         2.102101        -0.950121        -1.766452
 H         2.856996         0.665129        -1.879349
 H         2.555779        -2.442065        -0.156476
 H         2.901533        -1.892621         1.586152
 H         4.783544         1.709444         1.507293
 H         4.059159         2.042923        -0.378721
 H         2.699607         0.720387         1.978774
