19
Iteration:  1431
 C         0.269548         1.041299        -0.192732
 C         1.472348         0.181215        -0.051231
 C         2.466639        -0.132370        -1.268574
 C         3.402735        -0.393207         0.103008
 C         2.699744        -1.664848         0.550290
 O         1.245097        -1.163994         0.542556
 O         4.670210         0.222968         0.174256
 C         4.010433         1.442957         0.455358
 C         2.595320         0.745019         0.777056
 H        -0.288891         0.956964         0.771574
 H         0.431128         2.082617        -0.220524
 H        -0.440065         0.728987        -0.972748
 H         2.320225        -1.067088        -1.843888
 H         2.799837         0.892036        -1.637928
 H         2.733326        -2.443747        -0.226822
 H         3.021345        -1.901063         1.596689
 H         4.590212         1.821937         1.267278
 H         4.029449         2.207148        -0.388972
 H         2.442127         0.644108         1.805695
