19
Iteration:  3664
 C         0.184324         0.946458        -0.147224
 C         1.458346         0.263677        -0.044593
 C         2.477665        -0.040336        -1.125232
 C         3.393174        -0.411218         0.023677
 C         2.615520        -1.624714         0.626657
 O         1.298027        -1.147561         0.498195
 O         4.659674         0.133308         0.067574
 C         4.079272         1.403496         0.441557
 C         2.648515         0.757104         0.761488
 H        -0.038501         1.405983         0.825045
 H         0.423077         1.860533        -0.634686
 H        -0.672555         0.435721        -0.553832
 H         2.225978        -0.740701        -1.843840
 H         2.827580         0.863564        -1.545200
 H         2.744140        -2.542499         0.028655
 H         2.857908        -1.848387         1.682673
 H         4.625531         1.879868         1.262879
 H         4.195535         2.114706        -0.435668
 H         2.491458         0.768884         1.817722
