19
Iteration:  3431charge 0 multiplicity 1
 C         0.083174         0.874839        -0.176838
 C         1.480254         0.306391        -0.059961
 C         2.349091        -0.044165        -1.215380
 C         3.359119        -0.405058         0.019566
 C         2.703150        -1.576383         0.622989
 O         1.385955        -1.006973         0.524095
 O         4.655832         0.085724         0.118174
 C         4.182785         1.322852         0.469623
 C         2.624826         0.807537         0.780804
 H        -0.345403         0.711609         0.766193
 H        -0.033242         1.954744        -0.272501
 H        -0.384766         0.414917        -1.043919
 H         2.038042        -0.923068        -1.790144
 H         2.819912         0.774389        -1.688810
 H         2.793016        -2.443992        -0.049646
 H         2.916085        -1.962938         1.640831
 H         4.512039         1.759320         1.418283
 H         4.310871         2.113884        -0.292314
 H         2.605637         0.423264         1.839776
