19
Iteration:  4443
 C         0.045702         0.891930        -0.204910
 C         1.467421         0.303801        -0.081892
 C         2.427793        -0.026148        -1.222322
 C         3.339471        -0.398960         0.014020
 C         2.689835        -1.706163         0.583539
 O         1.338701        -1.051524         0.624546
 O         4.695324         0.059406         0.062950
 C         4.208016         1.384421         0.483218
 C         2.692173         0.920458         0.863083
 H        -0.471019         0.830671         0.799600
 H         0.020443         1.896059        -0.697366
 H        -0.671119         0.250441        -0.885303
 H         1.833577        -0.645751        -1.861710
 H         2.845152         0.932104        -1.724473
 H         2.484348        -2.579600        -0.157001
 H         2.949873        -2.197519         1.594436
 H         4.667727         1.876177         1.378522
 H         4.083336         1.956209        -0.472859
 H         2.564317         0.635343         1.908295
