19
Iteration:  1068
 C         0.074654         0.910517        -0.322899
 C         1.455169         0.275303        -0.088479
 C         2.504365        -0.035177        -1.130630
 C         3.314349        -0.438643         0.039491
 C         2.750241        -1.639370         0.543860
 O         1.358007        -1.147091         0.613268
 O         4.682067         0.105082         0.043337
 C         4.012016         1.439145         0.556410
 C         2.666040         0.901597         0.874143
 H        -0.481546         0.538541         0.528947
 H         0.222788         2.024200        -0.387341
 H        -0.454109         0.386676        -1.143491
 H         2.122560        -0.712749        -1.943739
 H         2.937068         0.775300        -1.629190
 H         2.722180        -2.388371        -0.218502
 H         3.118269        -1.976375         1.434884
 H         4.593515         1.635121         1.431484
 H         4.006633         2.184172        -0.125486
 H         2.538325         0.754835         1.982138
