19
Iteration:   386charge 0 multiplicity 1
 C         0.186302         1.047875        -0.150014
 C         1.476239         0.259925        -0.131509
 C         2.486969        -0.111312        -1.205760
 C         3.345427        -0.373689         0.116193
 C         2.743746        -1.726834         0.502752
 O         1.338798        -1.202752         0.549664
 O         4.651993         0.238303         0.198261
 C         3.921088         1.488468         0.434374
 C         2.643151         0.702265         0.781187
 H        -0.316010         0.757936         0.873253
 H         0.318775         2.152202        -0.187877
 H        -0.439066         0.747317        -1.002679
 H         2.448274        -0.901686        -1.834082
 H         2.893761         0.698969        -1.865040
 H         2.718041        -2.558685        -0.233777
 H         3.157666        -1.977438         1.487151
 H         4.614852         1.893211         1.291448
 H         3.980581         2.115590        -0.448435
 H         2.420248         0.572258         1.885777
