19
Iteration:  1088
 C         0.160905         0.874109        -0.242628
 C         1.474327         0.274000        -0.010645
 C         2.466736        -0.006568        -1.189828
 C         3.343670        -0.370555         0.066849
 C         2.683174        -1.679920         0.598228
 O         1.335223        -1.095325         0.529462
 O         4.656744         0.185258         0.095529
 C         4.071455         1.463036         0.442806
 C         2.666795         0.648101         0.852891
 H        -0.641955         0.727127         0.503206
 H         0.385206         2.044677        -0.403170
 H        -0.248140         0.487973        -1.259676
 H         2.120498        -0.765394        -1.898085
 H         2.693286         0.888332        -1.751766
 H         2.949916        -2.620823        -0.013861
 H         2.941916        -1.866789         1.624173
 H         4.501535         1.854565         1.466899
 H         4.049229         2.201006        -0.321119
 H         2.262654         0.692651         1.939433
