19
Iteration:  2743
 C         0.257484         1.032849        -0.029529
 C         1.532500         0.249269        -0.109721
 C         2.448322        -0.198848        -1.326100
 C         3.365068        -0.451680         0.038289
 C         2.667872        -1.613018         0.628244
 O         1.321111        -1.087797         0.519322
 O         4.735529         0.146986         0.199011
 C         3.935264         1.414101         0.404412
 C         2.579277         0.791558         0.714458
 H        -0.023106         1.196582         1.009000
 H         0.559845         1.992093        -0.294030
 H        -0.626408         0.576571        -0.586151
 H         1.895447        -1.078210        -1.764139
 H         2.742625         0.613484        -1.951634
 H         2.680684        -2.540060        -0.011702
 H         2.945057        -1.776730         1.712552
 H         4.390244         2.045104         1.334532
 H         3.947071         2.126346        -0.487022
 H         2.444565         0.713649         1.797820
