19
Iteration:   789charge 0 multiplicity 1
 C         0.089174         0.842912        -0.263537
 C         1.500359         0.283481        -0.041110
 C         2.520469         0.041140        -1.225002
 C         3.389032        -0.388976         0.034058
 C         2.637454        -1.676373         0.519249
 O         1.339992        -1.090154         0.557766
 O         4.702293         0.140077         0.125878
 C         3.954090         1.483268         0.535901
 C         2.685222         0.706777         0.861681
 H        -0.270254         1.146879         0.820255
 H         0.181523         1.791124        -0.749990
 H        -0.677162         0.145130        -0.618190
 H         2.406978        -0.779229        -1.959927
 H         3.016341         0.792817        -1.776032
 H         2.858973        -2.459349        -0.173470
 H         2.958958        -1.993327         1.480962
 H         4.487416         1.723856         1.510709
 H         3.962077         2.203526        -0.328948
 H         2.378052         0.634219         1.898719
