19
Iteration:  1131
 C         0.187049         0.973999        -0.089058
 C         1.476708         0.229023        -0.120686
 C         2.527717        -0.072549        -1.219675
 C         3.394683        -0.455047         0.141130
 C         2.664371        -1.645244         0.552482
 O         1.363346        -1.137816         0.462070
 O         4.658658         0.187999         0.193804
 C         3.924290         1.484016         0.392986
 C         2.618389         0.734043         0.800487
 H        -0.175774         1.200598         0.908872
 H         0.245637         1.990279        -0.625730
 H        -0.654166         0.536144        -0.698185
 H         2.244209        -0.924911        -1.859111
 H         3.124955         0.652177        -1.697994
 H         2.686679        -2.574727        -0.181271
 H         2.939517        -2.034370         1.544053
 H         4.567616         2.016611         1.247655
 H         3.980875         2.168412        -0.469235
 H         2.457843         0.695459         1.941797
