19
Iteration:  4708charge 0 multiplicity 1
 C         0.174279         0.943768        -0.137640
 C         1.520391         0.300195        -0.092645
 C         2.431477         0.060279        -1.201533
 C         3.396668        -0.484141         0.031924
 C         2.694749        -1.687617         0.603367
 O         1.310591        -1.019945         0.575962
 O         4.667573         0.058129         0.101086
 C         4.023980         1.438508         0.430212
 C         2.631211         0.685087         0.808073
 H        -0.314961         0.893535         0.944434
 H         0.091914         2.047904        -0.534425
 H        -0.411016         0.355300        -0.849760
 H         2.165605        -0.656485        -1.993848
 H         2.574868         0.966920        -1.822803
 H         2.594580        -2.554918        -0.017227
 H         3.152855        -1.982504         1.549053
 H         4.761098         1.972304         1.142089
 H         3.989897         2.167262        -0.382049
 H         2.560549         0.613448         1.928863
