19
Iteration:  1454charge 0 multiplicity 1
 C         0.148617         0.953535        -0.238116
 C         1.522826         0.337463        -0.055233
 C         2.445028        -0.092108        -1.233430
 C         3.407188        -0.422062         0.094746
 C         2.696767        -1.728546         0.567622
 O         1.340752        -1.076702         0.501232
 O         4.678892         0.141683         0.129169
 C         3.939615         1.478642         0.512269
 C         2.684156         0.718175         0.871608
 H        -0.493140         1.187585         0.620967
 H         0.305003         1.962643        -0.573077
 H        -0.423233         0.506252        -1.077849
 H         1.978470        -1.001192        -1.737133
 H         2.762409         0.779294        -1.803378
 H         2.607295        -2.607202        -0.050922
 H         3.047779        -1.860519         1.614039
 H         4.562525         1.943194         1.255337
 H         3.788130         2.149645        -0.333953
 H         2.712045         0.468526         1.864744
