19
Iteration:   479charge 0 multiplicity 1
 C         0.031706         0.812987        -0.188852
 C         1.449856         0.335451        -0.097872
 C         2.388731        -0.046407        -1.269411
 C         3.321652        -0.338614         0.046438
 C         2.712031        -1.677053         0.470695
 O         1.360216        -1.130668         0.512723
 O         4.693832         0.112680         0.225800
 C         4.129721         1.441866         0.553766
 C         2.713833         0.894749         0.905406
 H        -0.320400         1.145468         0.739525
 H         0.044482         1.660063        -0.936286
 H        -0.550728         0.053595        -0.747261
 H         2.318219        -0.993406        -1.993766
 H         2.902945         0.635479        -1.943263
 H         2.711237        -2.404844        -0.282621
 H         2.992457        -2.018274         1.470636
 H         4.555604         1.949800         1.418480
 H         4.064267         2.204417        -0.343575
 H         2.734971         0.493317         1.863859
