19
Iteration:  2807charge 0 multiplicity 1
 C         0.169451         0.794590        -0.306011
 C         1.495451         0.348490         0.028507
 C         2.411659        -0.013789        -1.172471
 C         3.277113        -0.372046         0.020333
 C         2.664148        -1.661219         0.598148
 O         1.291215        -1.013951         0.601850
 O         4.636887         0.071546         0.078038
 C         4.135144         1.448214         0.373311
 C         2.793240         0.751054         0.951321
 H        -0.577077         0.795878         0.533209
 H         0.194723         1.778179        -0.679024
 H        -0.263249         0.149278        -1.141553
 H         1.657720        -0.545967        -1.798817
 H         2.758043         0.788125        -1.760505
 H         2.677038        -2.449586        -0.173038
 H         3.068454        -1.828806         1.645996
 H         4.811793         1.866659         1.126286
 H         3.999608         2.005737        -0.466854
 H         2.757736         0.487880         2.021302
