19
Iteration:  1512charge 0 multiplicity 1
 C         0.028677         0.850433        -0.212127
 C         1.489932         0.367131        -0.156613
 C         2.447649        -0.030872        -1.174764
 C         3.336783        -0.376366         0.107502
 C         2.694177        -1.633488         0.515623
 O         1.329027        -1.093996         0.541786
 O         4.697178         0.140222         0.193226
 C         4.127871         1.377015         0.513720
 C         2.662376         0.773932         0.765484
 H        -0.218690         1.088548         0.844757
 H         0.200214         1.749363        -0.897168
 H        -0.667117         0.094975        -0.587140
 H         2.054869        -0.829646        -1.827786
 H         2.831827         0.709702        -1.867841
 H         2.732166        -2.498772        -0.084293
 H         3.165994        -1.877125         1.451029
 H         4.605559         1.822631         1.441254
 H         4.266620         2.015162        -0.290676
 H         2.447708         0.565807         1.850336
