19
Iteration:  1393charge 0 multiplicity 1
 C         0.156129         0.939728        -0.139174
 C         1.522518         0.337023        -0.100948
 C         2.521482        -0.080589        -1.200453
 C         3.397205        -0.406747         0.062605
 C         2.697345        -1.614860         0.603459
 O         1.265765        -1.079595         0.444004
 O         4.665745         0.169779         0.177333
 C         3.992432         1.376730         0.405187
 C         2.675927         0.703533         0.864209
 H        -0.379473         0.764578         0.777349
 H         0.221900         1.998349        -0.517181
 H        -0.283513         0.283916        -0.899128
 H         2.086818        -0.800952        -1.892010
 H         2.751622         0.749387        -1.784219
 H         2.674634        -2.582227         0.046506
 H         2.916275        -1.806536         1.647964
 H         4.479174         1.907435         1.293898
 H         3.821808         1.996877        -0.479153
 H         2.540888         0.501544         2.021550
