19
Iteration:    23charge 0 multiplicity 1
 C         0.111236         0.839378        -0.245335
 C         1.454165         0.225816        -0.059446
 C         2.499720         0.048073        -1.200801
 C         3.303555        -0.384911         0.097221
 C         2.762827        -1.717195         0.461162
 O         1.369846        -1.064358         0.697179
 O         4.635970         0.084985         0.064428
 C         4.068848         1.448045         0.485400
 C         2.618776         0.829706         0.810871
 H        -0.510742         0.717691         0.628224
 H         0.271940         1.920913        -0.355084
 H        -0.396788         0.455752        -1.132413
 H         2.318037        -0.609066        -2.049530
 H         2.815409         1.023508        -1.535589
 H         2.731560        -2.441293        -0.368302
 H         3.068097        -2.191470         1.381527
 H         4.519055         1.675241         1.469461
 H         4.177278         2.294016        -0.171775
 H         2.371671         0.864926         1.860004
