19
Iteration:  1202charge 0 multiplicity 1
 C         0.147302         0.782924        -0.310608
 C         1.530140         0.357536         0.005809
 C         2.486923         0.011986        -1.186879
 C         3.320169        -0.384344         0.064292
 C         2.673187        -1.610511         0.589714
 O         1.302179        -1.123278         0.560887
 O         4.648666         0.156695         0.048101
 C         4.109017         1.404670         0.502824
 C         2.648482         0.719102         0.872016
 H        -0.388123         1.077338         0.720863
 H         0.278975         1.793277        -0.770181
 H        -0.562279         0.143981        -0.965771
 H         2.097501        -0.664379        -1.991178
 H         2.978675         1.041296        -1.568577
 H         2.737556        -2.381972        -0.157894
 H         2.764019        -1.952498         1.651513
 H         4.489519         1.738375         1.419665
 H         4.208733         2.131561        -0.342946
 H         2.488458         0.670191         1.912243
