19
Iteration:  2441
 C         0.231584         1.063746        -0.126681
 C         1.496884         0.345638        -0.120032
 C         2.393905        -0.147901        -1.254764
 C         3.445207        -0.429580         0.105852
 C         2.666317        -1.737738         0.636854
 O         1.288391        -1.123038         0.522409
 O         4.663404         0.230485         0.171301
 C         3.953607         1.466989         0.386548
 C         2.680866         0.646408         0.794657
 H        -0.342151         0.990598         0.771664
 H         0.579255         2.071162        -0.174610
 H        -0.397567         0.815715        -1.025141
 H         2.046968        -1.128638        -1.723042
 H         2.923190         0.492463        -1.946124
 H         2.864827        -2.600878        -0.019068
 H         2.848392        -1.898546         1.717637
 H         4.318791         2.137585         1.087935
 H         4.171640         1.951678        -0.633630
 H         2.622874         0.470307         1.874474
