19
Iteration:  2238charge 0 multiplicity 1
 C         0.130896         0.817887        -0.254334
 C         1.509175         0.367105         0.027374
 C         2.338222        -0.041585        -1.162599
 C         3.401513        -0.400892         0.051947
 C         2.654678        -1.690234         0.568499
 O         1.255355        -1.062073         0.505268
 O         4.691531         0.094850         0.118242
 C         4.147744         1.465538         0.467800
 C         2.759405         0.842701         0.847577
 H        -0.568900         0.590030         0.581098
 H         0.079785         1.966471        -0.502841
 H        -0.264813         0.203557        -1.123956
 H         2.038501        -0.956767        -1.759374
 H         2.677199         0.608681        -1.924416
 H         2.551548        -2.552608        -0.178993
 H         2.901625        -1.981549         1.638124
 H         4.713428         2.112710         1.302904
 H         4.167295         2.045094        -0.408156
 H         2.545456         0.628453         1.944444
