19
Iteration:  2596
 C         0.155948         1.054552        -0.084344
 C         1.555339         0.261902        -0.010230
 C         2.480476        -0.130930        -1.150626
 C         3.382804        -0.460932         0.200270
 C         2.579956        -1.705491         0.614550
 O         1.293982        -1.129807         0.407319
 O         4.704422         0.211640         0.148136
 C         3.968913         1.448929         0.268130
 C         2.729741         0.724269         0.772335
 H        -0.417498         0.940368         0.842614
 H         0.490501         2.175020        -0.280325
 H        -0.470069         0.802161        -0.962752
 H         2.109339        -0.981958        -1.757190
 H         2.978674         0.629084        -1.833187
 H         2.807430        -2.642315        -0.011715
 H         2.905080        -1.816893         1.718226
 H         4.413760         2.110438         0.989533
 H         3.694918         1.854579        -0.701071
 H         2.565291         0.819434         1.884466
