19
Iteration:  1724charge 0 multiplicity 1
 C         0.274375         1.003169        -0.237609
 C         1.509947         0.275559        -0.006855
 C         2.447566        -0.165928        -1.251287
 C         3.371893        -0.377820         0.084459
 C         2.685652        -1.706494         0.587718
 O         1.330624        -1.104538         0.490135
 O         4.659527         0.169824         0.125397
 C         3.949712         1.512036         0.497803
 C         2.636282         0.721523         0.839641
 H        -0.182487         0.965506         0.826072
 H         0.481096         2.059347        -0.386740
 H        -0.571409         0.715907        -0.974068
 H         2.076259        -1.042368        -1.875666
 H         2.732364         0.529169        -1.957789
 H         2.786354        -2.505545        -0.181117
 H         2.838974        -2.065082         1.626741
 H         4.376608         1.963755         1.326035
 H         3.933382         2.192547        -0.296530
 H         2.472154         0.508232         1.974565
