19
Iteration:   508charge 0 multiplicity 1
 C         0.143000         0.878706        -0.157875
 C         1.468097         0.262894        -0.077384
 C         2.498159         0.010867        -1.195000
 C         3.376744        -0.400317         0.044411
 C         2.646219        -1.602775         0.569535
 O         1.353474        -1.131901         0.491991
 O         4.716277         0.172754         0.193557
 C         3.976992         1.438435         0.423568
 C         2.628970         0.690960         0.793072
 H        -0.377497         0.930772         0.900004
 H         0.356179         1.896593        -0.480578
 H        -0.508408         0.346971        -0.894522
 H         2.434850        -0.617659        -2.039164
 H         2.917350         0.938910        -1.574856
 H         2.680817        -2.527828        -0.090751
 H         2.982432        -1.852779         1.596170
 H         4.238115         1.877990         1.442616
 H         3.987833         2.147437        -0.400863
 H         2.603536         0.369610         1.865030
