19
Iteration:  3151charge 0 multiplicity 1
 C         0.213498         0.939872        -0.131978
 C         1.467535         0.267346         0.022813
 C         2.374626        -0.035987        -1.236032
 C         3.361085        -0.444989         0.123616
 C         2.702332        -1.649090         0.517075
 O         1.221753        -1.095455         0.522312
 O         4.749132         0.128044         0.189380
 C         4.060172         1.399851         0.340037
 C         2.689412         0.773655         0.801010
 H        -0.333960         1.143035         0.803416
 H         0.369061         1.887427        -0.635795
 H        -0.413544         0.453151        -0.838988
 H         1.977368        -0.966003        -1.775106
 H         2.741469         0.783861        -1.848569
 H         2.849790        -2.515530        -0.157018
 H         2.942056        -1.813075         1.561530
 H         4.707762         2.128354         1.014236
 H         3.970500         2.029649        -0.543470
 H         2.519219         0.845285         1.896320
