19
Iteration:  1498charge 0 multiplicity 1
 C         0.100078         0.849392        -0.219760
 C         1.443334         0.211995        -0.032730
 C         2.498642        -0.010815        -1.262640
 C         3.356344        -0.355263         0.017991
 C         2.684009        -1.630668         0.563602
 O         1.290145        -1.073965         0.522985
 O         4.690282         0.058359         0.145428
 C         4.118036         1.446959         0.509294
 C         2.670305         0.833578         0.884073
 H        -0.345955         1.211753         0.697234
 H        -0.058787         1.651467        -0.872400
 H        -0.465680         0.058488        -0.691308
 H         2.396461        -0.879588        -2.036441
 H         2.808222         0.921993        -1.656265
 H         2.772974        -2.369482        -0.218840
 H         2.779984        -1.938816         1.629209
 H         4.608774         1.835274         1.394831
 H         4.220250         2.238084        -0.251202
 H         2.437153         0.885684         1.891211
