19
Iteration:  1910
 C         0.072695         0.925113        -0.188833
 C         1.480207         0.247769        -0.148177
 C         2.540533         0.020025        -1.164727
 C         3.377261        -0.459260        -0.002436
 C         2.625591        -1.667736         0.564080
 O         1.359619        -1.058094         0.626316
 O         4.677313         0.135609         0.166924
 C         4.006363         1.417942         0.416165
 C         2.696144         0.725707         0.822763
 H        -0.574098         0.756826         0.668881
 H         0.319248         1.961308        -0.407932
 H        -0.508033         0.560856        -1.084059
 H         2.408850        -0.718786        -1.955965
 H         2.969806         0.917912        -1.696135
 H         2.701006        -2.451318        -0.183511
 H         2.714991        -1.970780         1.618351
 H         4.564445         1.851489         1.228205
 H         4.217806         2.197729        -0.315686
 H         2.299868         0.647555         1.950909
