19
Iteration:  4337charge 0 multiplicity 1
 C         0.148594         0.952831        -0.124203
 C         1.516631         0.342890        -0.014884
 C         2.402424        -0.071685        -1.208239
 C         3.387985        -0.404834        -0.002262
 C         2.677020        -1.678112         0.606225
 O         1.304857        -1.068638         0.567541
 O         4.743259         0.078547         0.133350
 C         3.973258         1.410498         0.375585
 C         2.689980         0.739480         0.751438
 H        -0.180402         1.289325         0.873486
 H         0.203708         1.911374        -0.651702
 H        -0.478864         0.229881        -0.549244
 H         2.231888        -0.834769        -2.023574
 H         2.921224         0.789755        -1.803006
 H         2.633561        -2.449239        -0.138521
 H         2.757367        -1.799509         1.694777
 H         4.364831         1.857660         1.310354
 H         3.961923         2.251391        -0.330790
 H         2.555697         0.608790         1.896384
