19
Iteration:  2600
 C         0.142806         1.078497        -0.081131
 C         1.506599         0.290060        -0.050033
 C         2.505836        -0.130974        -1.125861
 C         3.362061        -0.488692         0.183102
 C         2.614195        -1.689246         0.630915
 O         1.293388        -1.149422         0.412148
 O         4.732948         0.173922         0.136120
 C         3.941525         1.446857         0.263588
 C         2.730204         0.753338         0.777960
 H        -0.382454         0.923103         0.870596
 H         0.465124         2.066700        -0.159251
 H        -0.342447         0.675724        -0.949530
 H         2.081911        -0.904224        -1.719625
 H         3.054118         0.613444        -1.710074
 H         2.872921        -2.479964        -0.039554
 H         2.871351        -1.840175         1.675814
 H         4.409373         2.185937         1.076252
 H         3.731936         1.938513        -0.727151
 H         2.467409         0.816118         1.822773
