19
Iteration:  4086charge 0 multiplicity 1
 C         0.202292         1.073937        -0.064085
 C         1.532348         0.261944        -0.116486
 C         2.503933        -0.183881        -1.224361
 C         3.399856        -0.432129         0.102431
 C         2.683384        -1.622979         0.651374
 O         1.311566        -1.080565         0.465080
 O         4.642868         0.057275         0.086915
 C         3.948498         1.441076         0.412685
 C         2.642805         0.767197         0.786155
 H        -0.124759         1.050776         1.026637
 H         0.401893         2.157635        -0.258820
 H        -0.593003         0.728492        -0.737804
 H         2.257737        -1.042543        -1.852229
 H         2.731840         0.806130        -1.561744
 H         2.707752        -2.391839        -0.017666
 H         2.972782        -1.781255         1.619921
 H         4.433780         2.040151         1.124813
 H         3.902752         1.980422        -0.509379
 H         2.370335         0.665669         1.853021
