19
Iteration:  4434charge 0 multiplicity 1
 C         0.109466         0.899066        -0.225236
 C         1.429590         0.272981        -0.067855
 C         2.413241         0.017273        -1.162568
 C         3.348376        -0.473828         0.022099
 C         2.629165        -1.668771         0.561717
 O         1.319502        -1.046427         0.643919
 O         4.736086         0.106419         0.055420
 C         4.161772         1.350024         0.442569
 C         2.648976         0.871072         0.830873
 H        -0.388750         0.837612         0.776276
 H         0.056326         1.978918        -0.457651
 H        -0.305784         0.201721        -0.946733
 H         2.257791        -0.762476        -2.002850
 H         2.585675         1.048797        -1.612912
 H         2.587819        -2.655572        -0.065958
 H         3.130713        -1.945045         1.595468
 H         4.841036         1.712058         1.282663
 H         4.209598         2.225857        -0.415394
 H         2.536913         0.694841         1.936118
