19
Iteration:  2193charge 0 multiplicity 1
 C         0.135843         0.932456        -0.150663
 C         1.420588         0.245331        -0.162765
 C         2.597469        -0.007632        -1.256322
 C         3.283218        -0.426954         0.069720
 C         2.695251        -1.662155         0.586856
 O         1.341540        -1.060387         0.612710
 O         4.713330         0.102324         0.111284
 C         4.003133         1.453545         0.468993
 C         2.624807         0.689087         0.778537
 H         0.010443         1.238275         0.891755
 H         0.262090         1.898776        -0.746448
 H        -0.806660         0.392159        -0.545109
 H         2.319851        -0.680401        -2.051283
 H         2.816494         1.001451        -1.684949
 H         2.721283        -2.650727         0.074180
 H         2.995440        -1.690944         1.692625
 H         4.624581         1.849621         1.368717
 H         4.005180         2.128062        -0.351003
 H         2.339030         0.663017         1.850447
