19
Iteration:   264
 C         0.143180         1.022628        -0.151640
 C         1.474053         0.273446        -0.056121
 C         2.430131        -0.035108        -1.150563
 C         3.408711        -0.458545         0.106228
 C         2.752651        -1.712122         0.520080
 O         1.316798        -1.161261         0.438202
 O         4.714153         0.236117         0.149679
 C         3.934679         1.453596         0.405297
 C         2.686540         0.657336         0.885181
 H        -0.165653         1.283591         0.831842
 H         0.276302         1.951987        -0.867536
 H        -0.621707         0.414398        -0.738332
 H         1.982135        -0.787809        -1.651623
 H         2.909308         0.727165        -1.724168
 H         2.799266        -2.548841        -0.190697
 H         2.976829        -2.083901         1.501733
 H         4.469908         2.089622         1.196712
 H         3.736738         2.185033        -0.407077
 H         2.474470         0.663002         2.038185
