19
Iteration:  1701
 C         0.202199         1.017654        -0.225039
 C         1.443889         0.244462        -0.076569
 C         2.560349        -0.067387        -1.225506
 C         3.362909        -0.412192         0.029889
 C         2.706814        -1.706567         0.557397
 O         1.286118        -1.100126         0.619625
 O         4.680582         0.210825         0.158347
 C         3.959657         1.416453         0.449756
 C         2.644695         0.658912         0.791417
 H        -0.192353         1.199957         0.833106
 H         0.314992         1.996752        -0.690056
 H        -0.678539         0.512035        -0.817165
 H         2.497262        -0.783064        -2.075104
 H         2.802233         0.889289        -1.681970
 H         2.804529        -2.593094        -0.101518
 H         2.815478        -1.928738         1.630981
 H         4.500432         1.802639         1.295791
 H         3.972853         2.149483        -0.289871
 H         2.418050         0.674599         1.931284
