19
Iteration:   573
 C         0.209039         0.916106        -0.233392
 C         1.463503         0.210857        -0.129491
 C         2.431210        -0.009189        -1.202095
 C         3.333843        -0.397015        -0.026434
 C         2.745105        -1.682557         0.529879
 O         1.293992        -1.103565         0.606875
 O         4.686227         0.240810         0.186904
 C         4.006581         1.486818         0.488852
 C         2.627950         0.631180         0.862050
 H        -0.379770         0.821533         0.718723
 H         0.379584         1.949506        -0.418935
 H        -0.338585         0.605585        -1.123221
 H         2.325966        -0.710846        -1.996519
 H         2.873040         0.863067        -1.632211
 H         2.691813        -2.584715        -0.166057
 H         3.062886        -1.917569         1.558291
 H         4.599133         1.959370         1.313055
 H         4.133344         2.082090        -0.314584
 H         2.447014         0.372454         1.988727
