19
Iteration:  4359
 C         0.196671         1.045736        -0.088052
 C         1.433560         0.180724        -0.127404
 C         2.515962        -0.106734        -1.225357
 C         3.334362        -0.408782         0.050731
 C         2.687778        -1.697754         0.577836
 O         1.294766        -1.112444         0.570401
 O         4.627454         0.135435         0.115902
 C         4.072883         1.470270         0.373421
 C         2.712184         0.709536         0.864530
 H        -0.028266         1.233298         0.973544
 H         0.549101         2.018020        -0.459678
 H        -0.615801         0.657371        -0.601396
 H         2.438030        -0.843457        -2.103418
 H         2.636771         0.887600        -1.801257
 H         2.547774        -2.520746        -0.087809
 H         2.851578        -1.699943         1.655753
 H         4.472271         2.270097         1.008035
 H         3.836585         2.044903        -0.562144
 H         2.404399         0.768483         1.987091
