19
Iteration:    25charge 0 multiplicity 1
 C         0.102087         0.850026        -0.251193
 C         1.466849         0.233320        -0.061364
 C         2.491518         0.035156        -1.177019
 C         3.317735        -0.380821         0.089096
 C         2.737636        -1.693468         0.450745
 O         1.372281        -1.081656         0.703169
 O         4.638911         0.097004         0.068405
 C         4.067156         1.437088         0.486847
 C         2.631383         0.827049         0.817823
 H        -0.490714         0.635122         0.562451
 H         0.208395         1.947136        -0.401956
 H        -0.424829         0.472154        -1.110699
 H         2.315786        -0.631226        -2.118854
 H         2.778360         1.051275        -1.560904
 H         2.736198        -2.520179        -0.370807
 H         3.112718        -2.159190         1.384502
 H         4.556822         1.664611         1.481346
 H         4.150281         2.202041        -0.158410
 H         2.393910         0.900638         1.791771
