19
Iteration:  3588
 C         0.150380         0.965181        -0.244797
 C         1.424486         0.238181        -0.066707
 C         2.407038        -0.060730        -1.164714
 C         3.307959        -0.376990         0.031198
 C         2.651750        -1.629495         0.535411
 O         1.317913        -1.122811         0.630842
 O         4.739276         0.104341         0.152788
 C         4.153013         1.396505         0.374978
 C         2.656255         0.796601         0.848194
 H        -0.454471         0.844178         0.680141
 H         0.263326         2.017799        -0.360905
 H        -0.428771         0.467992        -1.005922
 H         2.094828        -0.744634        -1.886997
 H         2.688507         0.872430        -1.608304
 H         2.623491        -2.524724        -0.168378
 H         3.078800        -1.936353         1.535135
 H         4.588103         1.914132         1.278358
 H         4.207273         2.171762        -0.586983
 H         2.702189         0.767524         1.923951
