19
Iteration:  1924charge 0 multiplicity 1
 C         0.032741         0.860082        -0.240719
 C         1.450929         0.317356        -0.010422
 C         2.547861        -0.019476        -1.235945
 C         3.348051        -0.389962         0.100456
 C         2.687872        -1.640725         0.554947
 O         1.304778        -1.051011         0.552547
 O         4.691092         0.056026         0.126312
 C         4.112655         1.449983         0.473016
 C         2.650047         0.766132         0.813600
 H        -0.625593         0.752267         0.675755
 H         0.085031         2.044004        -0.347555
 H        -0.437536         0.371467        -1.154523
 H         2.215123        -0.720910        -2.002885
 H         3.077184         0.929426        -1.655677
 H         2.608688        -2.592584        -0.031279
 H         3.165918        -1.973170         1.479056
 H         4.598530         1.885749         1.293493
 H         3.998132         2.012072        -0.421709
 H         2.706504         0.600507         1.943911
