19
Iteration:   900charge 0 multiplicity 1
 C        -0.032798         0.790169        -0.234630
 C         1.509642         0.274749        -0.059762
 C         2.473486         0.032959        -1.200878
 C         3.392520        -0.368555         0.099247
 C         2.645779        -1.639223         0.563348
 O         1.326122        -1.105656         0.474447
 O         4.694485         0.107208         0.141545
 C         4.073212         1.496292         0.461920
 C         2.729742         0.775021         0.884106
 H        -0.687224         0.614577         0.701804
 H        -0.016368         1.901988        -0.315542
 H        -0.452514         0.568558        -1.246133
 H         2.299727        -0.881871        -1.802693
 H         2.889392         0.879391        -1.742258
 H         2.794155        -2.503396        -0.070337
 H         2.821772        -2.027002         1.519883
 H         4.645354         1.868264         1.412635
 H         4.260547         2.166704        -0.386969
 H         2.904090         0.561879         2.009975
