19
Iteration:  2973charge 0 multiplicity 1
 C         0.107371         0.858200        -0.216723
 C         1.484388         0.242065        -0.033069
 C         2.465901         0.041849        -1.199943
 C         3.347217        -0.332897         0.070825
 C         2.661333        -1.562324         0.669330
 O         1.297461        -1.074574         0.581614
 O         4.698836         0.043944        -0.030518
 C         4.141943         1.350791         0.462890
 C         2.616032         0.801974         0.825603
 H        -0.279236         0.774740         0.774443
 H         0.162218         1.978336        -0.460813
 H        -0.494874         0.297887        -1.008664
 H         2.245773        -0.668311        -1.965748
 H         2.915906         0.912991        -1.780777
 H         2.588694        -2.562205         0.114053
 H         2.842733        -1.853155         1.750165
 H         4.801059         1.493036         1.406059
 H         4.247222         2.089456        -0.397923
 H         2.426849         0.741394         1.898444
