19
Iteration:  1107charge 0 multiplicity 1
 C         0.168768         0.917901        -0.207527
 C         1.489090         0.268835        -0.041599
 C         2.435789        -0.067191        -1.193395
 C         3.450990        -0.402579        -0.000109
 C         2.665053        -1.684440         0.625717
 O         1.235226        -1.127816         0.449852
 O         4.731714         0.204103         0.150824
 C         3.927466         1.461753         0.478766
 C         2.745232         0.743731         0.857455
 H        -0.331993         0.863852         0.752622
 H         0.120552         2.011115        -0.410922
 H        -0.486635         0.596908        -1.038047
 H         2.234052        -0.861431        -1.886771
 H         2.940447         0.850313        -1.634855
 H         2.670341        -2.742172         0.114674
 H         2.964305        -1.906402         1.726378
 H         4.438287         2.220459         1.229023
 H         3.875318         2.048727        -0.528289
 H         2.804080         0.351873         1.928684
