19
Iteration:  4639
 C         0.221296         0.969971        -0.097814
 C         1.519532         0.263366        -0.019422
 C         2.509209        -0.010609        -1.244688
 C         3.369443        -0.402930        -0.093006
 C         2.679342        -1.695104         0.609812
 O         1.295168        -1.054098         0.569020
 O         4.625647         0.123326         0.117277
 C         4.021397         1.419404         0.408209
 C         2.634701         0.670345         0.848632
 H        -0.199111         1.343466         0.897405
 H         0.360275         1.894618        -0.682726
 H        -0.560744         0.373874        -0.683056
 H         2.356011        -0.855197        -1.946746
 H         2.675452         0.863285        -1.834528
 H         2.503925        -2.617748         0.008939
 H         3.032698        -1.942245         1.625970
 H         4.589109         1.914799         1.256832
 H         3.988401         2.251773        -0.364582
 H         2.350608         0.599500         1.897888
