19
Iteration:  1657charge 0 multiplicity 1
 C         0.073176         0.838477        -0.219324
 C         1.543266         0.302458        -0.054937
 C         2.486787        -0.024748        -1.171914
 C         3.332515        -0.357944         0.086216
 C         2.709744        -1.578547         0.593018
 O         1.277581        -1.063022         0.420752
 O         4.665299         0.074342         0.141124
 C         4.129270         1.392229         0.468887
 C         2.640157         0.817672         0.909499
 H        -0.364047         1.152383         0.787336
 H        -0.098807         1.635965        -0.975369
 H        -0.473881        -0.038845        -0.718788
 H         2.133660        -0.901061        -1.679822
 H         2.805953         0.701832        -1.967531
 H         2.606538        -2.351461        -0.138210
 H         3.113584        -1.884355         1.541362
 H         4.565830         1.915845         1.289004
 H         4.277657         1.963994        -0.383683
 H         2.656617         0.463857         2.016176
