19
Iteration:  2233charge 0 multiplicity 1
 C         0.127603         0.789393        -0.221251
 C         1.521929         0.363028        -0.033857
 C         2.314509        -0.013359        -1.125544
 C         3.367761        -0.385232         0.019892
 C         2.605372        -1.692718         0.585993
 O         1.296246        -1.042025         0.488474
 O         4.714227         0.105844         0.125343
 C         4.171603         1.448348         0.473756
 C         2.729761         0.797389         0.860286
 H        -0.645058         0.646368         0.531266
 H         0.196256         1.787278        -0.525580
 H        -0.215120         0.169728        -1.088966
 H         1.951242        -0.926066        -1.550361
 H         2.673370         0.690640        -1.975896
 H         2.761680        -2.503051        -0.101787
 H         2.796761        -1.932605         1.627094
 H         4.554241         2.048031         1.214845
 H         4.377751         2.059337        -0.486985
 H         2.609155         0.771196         1.924044
