19
Iteration:  1007
 C         0.114517         0.987777        -0.131722
 C         1.456666         0.258772        -0.073856
 C         2.543721         0.035422        -1.201575
 C         3.370983        -0.376970         0.122605
 C         2.753167        -1.700497         0.624799
 O         1.339463        -1.147806         0.412435
 O         4.681787         0.149698         0.165468
 C         3.975705         1.386567         0.405256
 C         2.615077         0.734200         0.817382
 H        -0.265908         1.330415         0.898449
 H         0.034190         1.828384        -0.814499
 H        -0.621574         0.249205        -0.540119
 H         2.189429        -0.829429        -1.829404
 H         2.958427         0.844485        -1.828871
 H         2.889668        -2.578618        -0.151424
 H         3.030944        -2.000983         1.739324
 H         4.389856         1.912522         1.254545
 H         3.922590         2.172961        -0.531560
 H         2.465292         0.645406         1.898227
