19
Iteration:  3210charge 0 multiplicity 1
 C         0.213360         0.992629        -0.168457
 C         1.508256         0.209986        -0.107633
 C         2.392216        -0.185349        -1.184797
 C         3.358382        -0.455138         0.081554
 C         2.646275        -1.636096         0.612181
 O         1.330487        -1.074352         0.522836
 O         4.632057         0.195883         0.022336
 C         4.072826         1.500854         0.570791
 C         2.709921         0.766280         0.771585
 H        -0.114350         1.218500         0.882150
 H         0.533171         1.982625        -0.596681
 H        -0.716525         0.432701        -0.639893
 H         2.018542        -1.016519        -1.802952
 H         2.628300         0.682150        -1.929532
 H         2.705855        -2.566936        -0.111549
 H         2.849799        -2.079484         1.674093
 H         4.695231         1.640448         1.388081
 H         4.075997         2.292456        -0.234680
 H         2.397938         0.663492         1.838190
