19
Iteration:   100charge 0 multiplicity 1
 C         0.118824         1.060481        -0.030756
 C         1.433010         0.252782        -0.136453
 C         2.581279        -0.082358        -1.249005
 C         3.396933        -0.421220         0.079272
 C         2.805746        -1.684112         0.539164
 O         1.296421        -1.243487         0.515852
 O         4.640367         0.166693         0.150067
 C         3.962456         1.484385         0.445203
 C         2.596859         0.760144         0.778898
 H        -0.041480         1.222423         0.976749
 H         0.322129         2.015593        -0.615927
 H        -0.794186         0.647381        -0.460907
 H         2.572186        -0.796391        -2.080447
 H         2.863215         0.832928        -1.724046
 H         2.830647        -2.515274        -0.129121
 H         2.954241        -2.064416         1.501674
 H         4.346804         1.936111         1.447921
 H         4.097561         2.176511        -0.397931
 H         2.404719         0.834279         1.806931
