19
Iteration:  4926charge 0 multiplicity 1
 C         0.183808         0.992603        -0.178522
 C         1.474504         0.295631        -0.052337
 C         2.417003        -0.038015        -1.167922
 C         3.400631        -0.451176         0.030669
 C         2.593936        -1.712493         0.573724
 O         1.321275        -1.104454         0.586114
 O         4.688341         0.155741         0.045907
 C         4.062576         1.429912         0.416009
 C         2.664294         0.727295         0.825611
 H        -0.231139         0.972406         0.811489
 H         0.445842         2.037693        -0.204211
 H        -0.401827         0.654682        -0.936781
 H         1.950352        -0.859641        -1.643610
 H         2.902156         0.775756        -1.742459
 H         2.610972        -2.489478        -0.183523
 H         2.911844        -1.983340         1.604396
 H         4.435337         1.844637         1.396626
 H         4.211938         2.109296        -0.422712
 H         2.736333         0.699580         1.934596
