19
Iteration:  2928
 C         0.184385         0.929551        -0.200557
 C         1.514436         0.292374        -0.059981
 C         2.378916        -0.109680        -1.210302
 C         3.341821        -0.390443         0.068133
 C         2.659904        -1.644925         0.519963
 O         1.308569        -1.022750         0.657184
 O         4.721549         0.109037         0.083196
 C         4.067154         1.409528         0.426606
 C         2.699286         0.792776         0.872298
 H        -0.537306         0.958921         0.636192
 H         0.239694         1.988343        -0.470947
 H        -0.334704         0.286758        -1.029452
 H         2.082385        -0.916195        -1.887852
 H         2.543552         0.750480        -1.908754
 H         2.770842        -2.459804        -0.287910
 H         2.939342        -2.230050         1.471980
 H         4.569477         1.867743         1.343828
 H         3.890739         1.995031        -0.561285
 H         2.496667         0.542700         1.958267
