19
Iteration:  4069charge 0 multiplicity 1
 C         0.223855         1.064361        -0.037380
 C         1.513075         0.256260        -0.100338
 C         2.586149        -0.084854        -1.280337
 C         3.333292        -0.412865         0.014095
 C         2.601899        -1.657661         0.601604
 O         1.260210        -1.063670         0.573288
 O         4.691530         0.172527         0.149625
 C         3.944466         1.375774         0.329076
 C         2.649121         0.673989         0.809214
 H        -0.154960         0.926809         0.943264
 H         0.426943         2.081417        -0.366215
 H        -0.591460         0.818355        -0.726556
 H         2.263294        -1.057538        -1.710368
 H         3.271737         0.477480        -1.976870
 H         2.847811        -2.740289         0.115981
 H         2.926608        -1.855285         1.763471
 H         4.507634         1.966661         1.167473
 H         3.822142         2.008464        -0.610456
 H         2.514100         0.564324         1.897565
