19
Iteration:  1811
 C         0.012686         0.868847        -0.252147
 C         1.491944         0.348023        -0.056100
 C         2.421937        -0.066343        -1.257918
 C         3.369880        -0.399739         0.097666
 C         2.705835        -1.632291         0.489335
 O         1.300653        -1.021293         0.547573
 O         4.760839         0.120619         0.175788
 C         4.086535         1.433599         0.568214
 C         2.715687         0.710775         0.801672
 H        -0.402617         1.057256         0.784287
 H         0.064471         1.804022        -0.800151
 H        -0.682387         0.053304        -0.666027
 H         2.097188        -1.031589        -1.833455
 H         2.771749         0.708004        -1.883035
 H         2.627362        -2.511901        -0.208210
 H         2.999807        -2.059127         1.476181
 H         4.589323         1.945069         1.332187
 H         4.125312         2.035465        -0.315818
 H         2.465764         0.770781         1.951352
