19
Iteration:  3702
 C         0.052816         0.799518        -0.187570
 C         1.463687         0.341811        -0.077913
 C         2.409830         0.000727        -1.137836
 C         3.340099        -0.441350        -0.044426
 C         2.621587        -1.586465         0.475063
 O         1.377994        -0.947348         0.630431
 O         4.674551         0.061654         0.211861
 C         4.171217         1.392289         0.463513
 C         2.767546         0.736996         0.768154
 H        -0.542059         0.888963         0.726655
 H         0.081536         1.801331        -0.770675
 H        -0.432447         0.030191        -0.842238
 H         2.003225        -0.877511        -1.810782
 H         2.766840         0.840856        -1.826329
 H         2.458336        -2.489087        -0.217196
 H         2.927601        -1.950609         1.480960
 H         4.702730         1.822470         1.352375
 H         3.937797         2.204636        -0.445960
 H         2.628983         0.492794         1.872480
