19
Iteration:  1006
 C         0.108547         0.991545        -0.134491
 C         1.474147         0.254099        -0.077290
 C         2.543798         0.028929        -1.193854
 C         3.361374        -0.377756         0.119127
 C         2.766007        -1.702817         0.624795
 O         1.333891        -1.148235         0.408868
 O         4.678483         0.155543         0.166768
 C         3.977252         1.380263         0.406476
 C         2.611364         0.739204         0.820317
 H        -0.248985         1.331769         0.882755
 H         0.050927         1.821009        -0.784746
 H        -0.639605         0.282438        -0.498975
 H         2.165405        -0.821064        -1.856622
 H         2.964637         0.829131        -1.789078
 H         2.901322        -2.549280        -0.153471
 H         3.018151        -2.013899         1.744844
 H         4.397636         1.881283         1.236053
 H         3.903163         2.183277        -0.539957
 H         2.470394         0.684361         1.863730
