19
Iteration:  2708charge 0 multiplicity 1
 C         0.148303         0.958249        -0.197517
 C         1.489076         0.308687         0.027138
 C         2.492710        -0.027285        -1.190184
 C         3.369790        -0.426598         0.064667
 C         2.607109        -1.642999         0.609841
 O         1.288349        -1.160559         0.549083
 O         4.745707         0.130693         0.082650
 C         4.036681         1.387672         0.343528
 C         2.651695         0.806249         0.865289
 H        -0.154788         1.461834         0.744363
 H         0.231976         1.685307        -0.968293
 H        -0.699926         0.354493        -0.501759
 H         2.244103        -0.750124        -1.972123
 H         2.898080         0.859635        -1.694010
 H         2.692118        -2.566857        -0.015956
 H         2.992836        -1.962663         1.650850
 H         4.602661         1.964919         1.122747
 H         3.919308         1.973997        -0.563549
 H         2.474041         0.596718         1.916103
