19
Iteration:  2410charge 0 multiplicity 1
 C         0.221894         0.947423        -0.191970
 C         1.507355         0.240626        -0.080345
 C         2.469646        -0.052491        -1.174451
 C         3.398885        -0.402235         0.106450
 C         2.639728        -1.612885         0.678003
 O         1.295519        -1.069949         0.534823
 O         4.663019         0.130382        -0.008059
 C         3.982074         1.427929         0.442249
 C         2.628683         0.697230         0.825276
 H        -0.291685         0.886499         0.721789
 H         0.320277         2.015901        -0.396969
 H        -0.371215         0.594850        -1.022067
 H         2.486692        -0.747349        -2.059055
 H         2.798581         0.884528        -1.552425
 H         2.805720        -2.519355         0.155165
 H         2.791436        -1.836502         1.774011
 H         4.426676         1.765901         1.391870
 H         4.197627         1.995442        -0.519059
 H         2.604650         0.554577         1.908847
