19
Iteration:   529
 C         0.223241         0.951015        -0.201832
 C         1.562779         0.259184        -0.061379
 C         2.531384        -0.051314        -1.218741
 C         3.356495        -0.424232         0.112440
 C         2.742871        -1.749817         0.600957
 O         1.264174        -1.164882         0.429928
 O         4.608252         0.221443         0.073526
 C         4.003895         1.520579         0.484010
 C         2.598987         0.710387         0.902213
 H        -0.245474         0.786769         0.852288
 H         0.390928         2.008566        -0.241876
 H        -0.447013         0.668768        -1.010435
 H         2.176929        -0.724847        -1.909686
 H         2.769108         0.839878        -1.793715
 H         2.742578        -2.719902        -0.016826
 H         3.071033        -1.816794         1.655962
 H         4.602300         2.021960         1.322208
 H         3.714106         2.148089        -0.265072
 H         2.318873         0.798524         2.030833
