19
Iteration:   495
 C         0.017808         0.890463        -0.203286
 C         1.447025         0.247389        -0.089793
 C         2.473831        -0.010379        -1.215874
 C         3.413722        -0.403456         0.026165
 C         2.789408        -1.666307         0.504969
 O         1.287918        -1.050750         0.501619
 O         4.722028         0.151550         0.243782
 C         4.051609         1.454239         0.502816
 C         2.684301         0.683112         0.798745
 H        -0.377930         0.975327         0.866322
 H        -0.053269         1.858866        -0.636854
 H        -0.694184         0.242380        -0.711047
 H         2.076984        -0.756681        -1.791988
 H         2.660280         0.963725        -1.704629
 H         2.844027        -2.605563        -0.152404
 H         3.048259        -1.920002         1.552150
 H         4.630206         1.981211         1.280312
 H         4.100839         2.041065        -0.345458
 H         2.366722         0.775566         1.929199
