19
Iteration:  4701
 C         0.210330         0.982507        -0.147077
 C         1.528495         0.300268        -0.038819
 C         2.422407        -0.017949        -1.210250
 C         3.352492        -0.427086         0.024250
 C         2.657758        -1.642839         0.593396
 O         1.323150        -1.091724         0.554239
 O         4.710675         0.073753         0.091011
 C         3.985367         1.462941         0.387746
 C         2.641451         0.704808         0.869446
 H        -0.157937         0.895517         0.819372
 H         0.343056         1.928251        -0.602805
 H        -0.559673         0.387304        -0.685153
 H         2.191375        -0.738656        -1.968380
 H         2.673268         1.043399        -1.550782
 H         2.657548        -2.417863        -0.207898
 H         2.932563        -2.020010         1.600282
 H         4.622212         1.654742         1.188538
 H         4.061080         2.106122        -0.485584
 H         2.405584         0.605413         1.921345
