19
Iteration:  3301charge 0 multiplicity 1
 C         0.101930         0.995173        -0.101676
 C         1.505726         0.269379        -0.088373
 C         2.499952        -0.129428        -1.253413
 C         3.346397        -0.429386        -0.003727
 C         2.712953        -1.728035         0.636454
 O         1.336852        -1.000758         0.518641
 O         4.668315         0.135347         0.106654
 C         4.037626         1.430344         0.450906
 C         2.668360         0.789800         0.822774
 H        -0.415861         0.941471         0.920176
 H         0.237478         2.117428        -0.467601
 H        -0.700512         0.503016        -0.796927
 H         2.104704        -0.990134        -1.812012
 H         2.776434         0.592550        -1.960076
 H         2.696709        -2.640874        -0.044973
 H         2.904323        -2.051885         1.737926
 H         4.618924         1.783295         1.358177
 H         3.952437         2.189803        -0.302724
 H         2.559898         0.541715         1.901375
