19
Iteration:  2805
 C         0.172072         0.790654        -0.315988
 C         1.500210         0.364786         0.030755
 C         2.393912        -0.012488        -1.170457
 C         3.274439        -0.375694         0.035280
 C         2.660299        -1.656362         0.604626
 O         1.292968        -1.017827         0.592218
 O         4.644045         0.072631         0.074412
 C         4.140650         1.451015         0.378901
 C         2.786138         0.734744         0.952411
 H        -0.499878         0.740468         0.610789
 H         0.190974         1.789681        -0.731187
 H        -0.231976         0.226481        -1.144215
 H         1.711299        -0.580986        -1.785922
 H         2.718281         0.802296        -1.787802
 H         2.665428        -2.463141        -0.117201
 H         3.085092        -1.839978         1.602151
 H         4.772056         1.860910         1.052800
 H         3.952128         2.042262        -0.469208
 H         2.800254         0.497430         2.020415
