19
Iteration:  3331
 C         0.277039         1.120181        -0.154070
 C         1.495539         0.174728        -0.124940
 C         2.436971        -0.082021        -1.243397
 C         3.334110        -0.402184        -0.024099
 C         2.667546        -1.719588         0.680428
 O         1.292972        -1.162661         0.574105
 O         4.771863         0.166241         0.115008
 C         3.903289         1.468766         0.421924
 C         2.635705         0.704951         0.806574
 H        -0.025841         1.293572         0.829539
 H         0.648301         2.058143        -0.487467
 H        -0.652098         0.701859        -0.483658
 H         2.129505        -0.806508        -2.009548
 H         2.677011         0.897957        -1.621668
 H         2.747346        -2.601413         0.018409
 H         2.882361        -1.867860         1.754431
 H         4.389689         1.899577         1.198235
 H         3.782675         2.285925        -0.319134
 H         2.671084         0.406471         1.839076
