19
Iteration:  2638
 C         0.174103         0.874767        -0.151677
 C         1.442251         0.248958        -0.096363
 C         2.386909        -0.098256        -1.228244
 C         3.313769        -0.424882        -0.045200
 C         2.688840        -1.577018         0.656545
 O         1.337335        -1.020067         0.593649
 O         4.683653         0.123714         0.126828
 C         4.106164         1.404377         0.493079
 C         2.705478         0.765959         0.758964
 H        -0.518941         0.808390         0.676089
 H         0.229456         1.941757        -0.575737
 H        -0.471334         0.566535        -1.011109
 H         2.086886        -0.779172        -2.065194
 H         2.906298         0.792608        -1.678284
 H         2.658027        -2.510829         0.043151
 H         2.813569        -1.899117         1.687831
 H         4.579283         1.804590         1.314619
 H         4.220836         2.097325        -0.343300
 H         2.639791         0.702424         1.878151
