19
Iteration:   768charge 0 multiplicity 1
 C         0.039992         0.880918        -0.212527
 C         1.442682         0.221900        -0.106573
 C         2.469248        -0.069417        -1.178001
 C         3.334121        -0.357691         0.073523
 C         2.748428        -1.662376         0.481368
 O         1.314553        -1.084819         0.485150
 O         4.692153         0.176679         0.204965
 C         4.165774         1.408803         0.545829
 C         2.652321         0.831397         0.782785
 H        -0.482488         0.636469         0.783950
 H         0.001562         1.905173        -0.459186
 H        -0.575239         0.210874        -0.774133
 H         2.101055        -0.846702        -1.886119
 H         2.666657         0.837741        -1.678804
 H         2.795042        -2.504685        -0.215869
 H         3.142068        -1.865596         1.440707
 H         4.553667         1.739571         1.622356
 H         4.240260         2.137787        -0.353026
 H         2.510331         0.750435         1.936614
