19
Iteration:  2276charge 0 multiplicity 1
 C         0.241880         1.018691        -0.203963
 C         1.501272         0.200806        -0.081042
 C         2.490777        -0.033150        -1.252207
 C         3.359650        -0.466402         0.059606
 C         2.688470        -1.730035         0.637763
 O         1.332815        -1.073070         0.617831
 O         4.701276         0.149743         0.107533
 C         3.925532         1.434759         0.455845
 C         2.601931         0.744853         0.745975
 H        -0.277047         0.928201         0.748506
 H         0.489497         2.019439        -0.282628
 H        -0.427928         0.717276        -1.002402
 H         2.181691        -0.721342        -2.024503
 H         2.743258         1.059680        -1.521469
 H         2.527414        -2.653789         0.058011
 H         3.005956        -1.979183         1.632946
 H         4.553726         1.843571         1.182855
 H         3.799940         2.253547        -0.466681
 H         2.434761         0.775828         1.823441
