19
Iteration:  4402charge 0 multiplicity 1
 C         0.162766         1.010422        -0.187766
 C         1.520256         0.325636        -0.032246
 C         2.410854        -0.086724        -1.217892
 C         3.341361        -0.475026         0.022580
 C         2.663710        -1.710426         0.624378
 O         1.320572        -1.048054         0.551490
 O         4.676770         0.143386         0.043423
 C         4.002506         1.440360         0.453079
 C         2.715508         0.722514         0.914050
 H        -0.423354         0.757581         0.706677
 H         0.258441         2.070092        -0.439150
 H        -0.388894         0.555479        -0.967145
 H         2.167377        -0.953081        -1.924215
 H         2.850953         0.720338        -1.874657
 H         2.721672        -2.615296        -0.033972
 H         3.019400        -1.776652         1.685138
 H         4.839705         1.947123         0.962371
 H         3.811825         2.132892        -0.479112
 H         2.668705         0.426575         2.030319
