19
Iteration:  1768
 C         0.156589         0.891271        -0.185492
 C         1.470681         0.187491        -0.158635
 C         2.510762         0.085868        -1.199135
 C         3.379219        -0.386195         0.100186
 C         2.648790        -1.621890         0.609521
 O         1.284599        -1.064804         0.536222
 O         4.672187         0.070821         0.117720
 C         4.010003         1.414686         0.421386
 C         2.715108         0.758468         0.883724
 H        -0.570056         0.663975         0.662844
 H         0.247893         1.937843        -0.510592
 H        -0.394325         0.379426        -1.110264
 H         2.418796        -0.718648        -2.022626
 H         2.753001         0.980337        -1.674890
 H         2.825322        -2.555750        -0.011000
 H         2.963237        -1.813015         1.675595
 H         4.455398         1.828127         1.254121
 H         4.005397         2.139200        -0.327309
 H         2.580880         0.614588         2.040162
