19
Iteration:  2492charge 0 multiplicity 1
 C         0.058664         0.889785        -0.217602
 C         1.505196         0.309154        -0.164410
 C         2.451415         0.018217        -1.184868
 C         3.375844        -0.451236         0.027716
 C         2.624518        -1.637056         0.651279
 O         1.307762        -1.033369         0.598622
 O         4.691406         0.070482         0.110344
 C         4.059139         1.416236         0.412778
 C         2.759920         0.737787         0.874479
 H        -0.463386         1.129398         0.765683
 H        -0.076993         1.758083        -0.847244
 H        -0.543802         0.066255        -0.699321
 H         2.296247        -0.702345        -1.954557
 H         3.000961         0.925309        -1.555800
 H         2.856337        -2.481838        -0.046685
 H         2.921539        -1.861242         1.649989
 H         4.675422         1.942689         1.147954
 H         4.122351         2.055408        -0.422566
 H         2.496814         0.688589         1.925292
