19
Iteration:   132charge 0 multiplicity 1
 C         0.178634         0.889185        -0.152161
 C         1.576961         0.343229         0.018217
 C         2.410383        -0.044992        -1.328859
 C         3.430029        -0.395808        -0.041918
 C         2.682233        -1.660119         0.533090
 O         1.260632        -1.129554         0.512257
 O         4.720522         0.197710         0.210206
 C         3.907435         1.484074         0.487381
 C         2.718900         0.638797         0.890200
 H        -0.220169         1.320377         0.751926
 H         0.231634         1.826664        -0.838112
 H        -0.476739         0.099596        -0.579524
 H         2.084889        -0.896885        -1.832437
 H         2.551593         0.706367        -2.039716
 H         2.668716        -2.454734        -0.135336
 H         3.015583        -1.907137         1.509176
 H         4.403278         2.097374         1.336208
 H         3.869669         2.055871        -0.505787
 H         2.610299         0.519927         2.003719
