19
Iteration:  2321charge 0 multiplicity 1
 C         0.092879         1.014721        -0.155414
 C         1.494632         0.274029        -0.107322
 C         2.431043        -0.088235        -1.224332
 C         3.404203        -0.473181         0.110035
 C         2.708283        -1.672869         0.622920
 O         1.295575        -1.110688         0.463214
 O         4.721608         0.142887         0.085801
 C         4.004457         1.433972         0.426169
 C         2.699575         0.780998         0.904520
 H        -0.127321         1.384749         0.808545
 H         0.206400         1.856186        -0.771146
 H        -0.744440         0.383864        -0.548925
 H         2.229785        -0.959483        -1.850612
 H         3.032736         0.794870        -1.668286
 H         2.826524        -2.601759         0.083376
 H         2.756463        -1.887640         1.702381
 H         4.313643         1.979504         1.290498
 H         4.140506         2.072063        -0.602542
 H         2.360767         0.736269         1.946841
