19
Iteration:  2685charge 0 multiplicity 1
 C         0.148855         0.831410        -0.303766
 C         1.499169         0.304476         0.022273
 C         2.480784        -0.012597        -1.118903
 C         3.323764        -0.436779         0.149139
 C         2.677307        -1.662570         0.535809
 O         1.322096        -0.992991         0.618700
 O         4.605371         0.053465        -0.015342
 C         4.118592         1.452046         0.447637
 C         2.713564         0.809006         0.832993
 H        -0.372164         1.242235         0.591558
 H         0.048137         1.533911        -1.153568
 H        -0.520336         0.061626        -0.609015
 H         2.089116        -0.646162        -1.885898
 H         2.634560         0.991107        -1.628956
 H         2.674068        -2.536136        -0.164254
 H         2.997129        -2.089656         1.566713
 H         4.690337         1.687409         1.334247
 H         4.194374         2.213579        -0.296570
 H         2.471032         0.666505         1.909034
