19
Iteration:  3683charge 0 multiplicity 1
 C         0.040904         0.927502        -0.209555
 C         1.504448         0.302584        -0.062608
 C         2.426100         0.032009        -1.313522
 C         3.319209        -0.380207         0.037370
 C         2.715859        -1.684807         0.566078
 O         1.312685        -1.043923         0.643339
 O         4.735546         0.026679         0.149482
 C         4.069601         1.384436         0.445546
 C         2.698423         0.776003         0.820813
 H        -0.417160         1.184179         0.787150
 H        -0.083639         1.944724        -0.698566
 H        -0.557277         0.083846        -0.595570
 H         2.179157        -0.753504        -2.065890
 H         2.838126         0.984623        -1.751214
 H         2.757741        -2.526589        -0.070810
 H         3.187113        -1.912261         1.528833
 H         4.573847         1.820205         1.310850
 H         4.236191         1.991593        -0.386535
 H         2.509390         0.676982         1.946760
