19
Iteration:   228charge 0 multiplicity 1
 C         0.168589         0.902098        -0.072454
 C         1.506471         0.295354        -0.104116
 C         2.519076        -0.025291        -1.202769
 C         3.324055        -0.428624         0.012763
 C         2.662765        -1.647453         0.547414
 O         1.296617        -1.168619         0.502539
 O         4.724752         0.210091         0.188141
 C         3.972596         1.463487         0.411228
 C         2.664879         0.678053         0.793694
 H        -0.380470         0.763196         0.894336
 H         0.413979         1.979377        -0.117726
 H        -0.516643         0.604882        -0.892894
 H         2.143290        -0.715634        -1.961492
 H         2.861901         0.848564        -1.734889
 H         2.833219        -2.515496        -0.171556
 H         3.040976        -1.863055         1.607476
 H         4.302418         1.884506         1.294564
 H         4.030986         2.201870        -0.417813
 H         2.397254         0.802267         1.915177
