19
Iteration:  2180
 C         0.196770         1.016486        -0.143496
 C         1.542576         0.213954        -0.087365
 C         2.426725        -0.091809        -1.262244
 C         3.446514        -0.422569         0.020768
 C         2.645129        -1.642443         0.615401
 O         1.318996        -1.117137         0.549511
 O         4.645645         0.191557         0.156655
 C         3.975949         1.406149         0.459402
 C         2.640473         0.757934         0.770560
 H        -0.090550         1.379686         0.877007
 H         0.250535         1.873378        -0.820106
 H        -0.683968         0.302890        -0.504258
 H         2.342323        -0.885974        -1.971067
 H         3.004592         0.823291        -1.704255
 H         2.682363        -2.478575        -0.093354
 H         2.965854        -2.094800         1.619748
 H         4.292670         1.774740         1.424560
 H         4.097756         2.160949        -0.321627
 H         2.502017         0.610964         1.814507
