19
Iteration:  1500charge 0 multiplicity 1
 C         0.107084         0.842789        -0.204987
 C         1.439737         0.231646        -0.066123
 C         2.494088        -0.020366        -1.264839
 C         3.347228        -0.349964         0.021036
 C         2.695837        -1.628560         0.560178
 O         1.290042        -1.076023         0.526919
 O         4.695051         0.069131         0.151078
 C         4.133151         1.437025         0.509852
 C         2.658595         0.820077         0.882907
 H        -0.405662         1.222138         0.676414
 H        -0.077155         1.693682        -0.903168
 H        -0.499266         0.068429        -0.675971
 H         2.330200        -0.889907        -1.995273
 H         2.811726         0.899825        -1.631690
 H         2.762777        -2.360956        -0.187290
 H         2.818696        -1.960508         1.574374
 H         4.567965         1.854949         1.454375
 H         4.205354         2.136183        -0.244695
 H         2.505457         0.962046         1.926689
