19
Iteration:  2604
 C         0.156078         1.073794        -0.076806
 C         1.454902         0.329417        -0.094332
 C         2.532643        -0.125705        -1.106895
 C         3.348775        -0.494423         0.141665
 C         2.664835        -1.665883         0.654700
 O         1.288161        -1.167888         0.428845
 O         4.752706         0.129723         0.124051
 C         3.927666         1.464725         0.270580
 C         2.700368         0.773383         0.799351
 H        -0.361090         0.888462         0.873779
 H         0.418355         2.162205        -0.080560
 H        -0.339299         0.583087        -0.974363
 H         2.077670        -0.926104        -1.777692
 H         3.091770         0.613707        -1.618991
 H         2.892821        -2.459538        -0.078512
 H         2.765143        -1.975614         1.692696
 H         4.348559         2.106868         0.951761
 H         3.884297         2.035192        -0.661718
 H         2.434385         0.823992         1.862856
