19
Iteration:  3384
 C         0.091640         0.822839        -0.159325
 C         1.508412         0.313605        -0.053976
 C         2.434578         0.025639        -1.227517
 C         3.360458        -0.446863         0.126133
 C         2.608990        -1.681179         0.516164
 O         1.321055        -1.004054         0.577867
 O         4.719238         0.105853         0.095105
 C         4.106294         1.409045         0.415597
 C         2.692349         0.743303         0.868685
 H        -0.436345         1.129534         0.725663
 H         0.219108         1.730924        -0.697702
 H        -0.402429         0.197409        -0.885369
 H         2.130867        -0.828703        -1.877020
 H         2.872165         0.952903        -1.675325
 H         2.549891        -2.548674        -0.097934
 H         2.961651        -1.939204         1.456281
 H         4.666584         1.906528         1.186371
 H         4.072220         2.150488        -0.508684
 H         2.380025         0.892185         1.878373
