19
Iteration:  1003charge 0 multiplicity 1
 C         0.094495         0.993051        -0.136037
 C         1.522974         0.248573        -0.087616
 C         2.535254        -0.003001        -1.173512
 C         3.335853        -0.389250         0.106990
 C         2.799451        -1.706527         0.621201
 O         1.319127        -1.151943         0.401399
 O         4.668643         0.170632         0.169705
 C         3.976790         1.378430         0.400755
 C         2.605110         0.753837         0.822515
 H        -0.176293         1.324607         0.828159
 H         0.124032         1.873501        -0.761069
 H        -0.717139         0.351541        -0.396720
 H         2.143388        -0.753548        -1.903150
 H         2.990222         0.821064        -1.681301
 H         2.926653        -2.445284        -0.103544
 H         2.949729        -2.014512         1.654123
 H         4.463442         1.846907         1.246491
 H         3.875131         2.108656        -0.456349
 H         2.467457         0.792437         1.878356
