19
Iteration:   935
 C         0.139707         0.875532        -0.302673
 C         1.501459         0.317867        -0.017811
 C         2.498661         0.032666        -1.246766
 C         3.345871        -0.381236         0.047893
 C         2.690196        -1.685397         0.581506
 O         1.359858        -1.147497         0.596667
 O         4.630241         0.156721         0.095444
 C         3.995486         1.435021         0.494861
 C         2.663510         0.735187         0.877263
 H        -0.527121         0.794589         0.534228
 H         0.368476         1.978696        -0.408344
 H        -0.440848         0.349487        -1.084872
 H         2.251139        -0.751338        -1.940930
 H         2.817703         0.935711        -1.851906
 H         2.806227        -2.407202        -0.178676
 H         2.936508        -2.000703         1.556791
 H         4.542624         1.763875         1.494521
 H         4.009460         2.242962        -0.343908
 H         2.663010         0.499811         2.037505
