19
Iteration:    42charge 0 multiplicity 1
 C         0.051755         0.846259        -0.290695
 C         1.456825         0.376796        -0.019223
 C         2.420484        -0.015193        -1.175387
 C         3.381578        -0.389970        -0.052432
 C         2.658054        -1.629654         0.527397
 O         1.328640        -1.142719         0.620208
 O         4.752241         0.184163         0.112830
 C         4.082594         1.407032         0.519185
 C         2.710606         0.722822         0.864898
 H        -0.626407         0.617166         0.650944
 H        -0.015505         1.933828        -0.308419
 H        -0.239032         0.321611        -1.236546
 H         2.104047        -0.858463        -1.697396
 H         2.746721         0.843827        -1.731048
 H         2.624138        -2.405077        -0.196925
 H         3.023616        -1.933520         1.514825
 H         4.552882         1.953855         1.309901
 H         4.068105         2.164516        -0.444758
 H         2.617406         0.394313         2.025450
