19
Iteration:  1054
 C         0.048573         0.820437        -0.267400
 C         1.489950         0.301881        -0.065446
 C         2.464577        -0.032492        -1.208107
 C         3.384043        -0.352981         0.065185
 C         2.673105        -1.658303         0.514644
 O         1.364541        -1.077711         0.620044
 O         4.691777         0.117335         0.079368
 C         4.070662         1.469713         0.544118
 C         2.656803         0.727003         0.833607
 H        -0.633825         0.852537         0.606151
 H         0.135205         1.984348        -0.537898
 H        -0.463650         0.404591        -1.216510
 H         2.296847        -0.881701        -1.857555
 H         2.800793         0.903799        -1.728489
 H         2.727634        -2.548389        -0.230703
 H         2.925640        -1.964960         1.557495
 H         4.583453         1.785589         1.553929
 H         4.240122         2.248530        -0.206524
 H         2.325990         0.787028         1.969209
