19
Iteration:   168
 C         0.085227         0.796222        -0.242433
 C         1.469121         0.233387        -0.032051
 C         2.484591         0.101645        -1.175888
 C         3.350205        -0.370542         0.147120
 C         2.674639        -1.697863         0.568795
 O         1.344539        -1.138129         0.552847
 O         4.639922         0.124798        -0.018935
 C         4.126710         1.440231         0.482435
 C         2.646098         0.838851         0.887293
 H        -0.471155         0.809768         0.653330
 H         0.285291         1.815737        -0.660133
 H        -0.509197         0.359555        -1.032628
 H         2.254228        -0.665166        -2.004663
 H         2.761829         1.166521        -1.494205
 H         2.819843        -2.432742        -0.238924
 H         2.973680        -2.228924         1.461407
 H         4.622495         1.557744         1.531305
 H         4.367834         2.263180        -0.134770
 H         2.391513         0.971782         1.849724
