19
Iteration:  1022charge 0 multiplicity 1
 C         0.090873         0.866251        -0.170625
 C         1.547201         0.315212        -0.053899
 C         2.455561        -0.010671        -1.225824
 C         3.386667        -0.419249         0.019176
 C         2.632956        -1.610674         0.540629
 O         1.323296        -1.138594         0.489202
 O         4.730390         0.124015         0.193335
 C         3.977364         1.529505         0.469303
 C         2.691483         0.676825         0.836955
 H        -0.366997         1.100353         0.796444
 H         0.293643         1.855636        -0.766902
 H        -0.612552         0.122710        -0.673723
 H         2.302980        -0.786265        -1.946408
 H         2.772067         0.915162        -1.772201
 H         2.689366        -2.601655         0.078910
 H         2.829407        -1.712054         1.586833
 H         4.553612         2.085344         1.296180
 H         4.003787         1.992388        -0.414577
 H         2.581479         0.602868         2.002945
