19
Iteration:  1894
 C         0.251723         0.948260        -0.195179
 C         1.507796         0.266161        -0.075930
 C         2.462433        -0.084202        -1.245979
 C         3.376441        -0.414007         0.099225
 C         2.670157        -1.715471         0.550478
 O         1.261317        -1.074795         0.568012
 O         4.712361         0.171454         0.154387
 C         3.992614         1.448642         0.481687
 C         2.630814         0.734411         0.776863
 H        -0.255068         0.817119         0.790525
 H         0.226956         2.065902        -0.424443
 H        -0.437338         0.584413        -0.929155
 H         2.146775        -0.812014        -2.017812
 H         2.813125         0.849666        -1.708782
 H         2.490966        -2.540797        -0.181856
 H         3.107242        -1.906971         1.544765
 H         4.437732         2.020409         1.427867
 H         3.869445         2.079210        -0.437057
 H         2.607710         0.598982         1.783269
