19
Iteration:    90
 C         0.124212         1.033000        -0.031375
 C         1.453041         0.251383        -0.126291
 C         2.632612         0.008856        -1.249408
 C         3.319910        -0.360705         0.104102
 C         2.723418        -1.704499         0.543214
 O         1.288702        -1.283293         0.527342
 O         4.685784         0.156711         0.095413
 C         3.949946         1.446978         0.427834
 C         2.596456         0.777898         0.790677
 H        -0.209100         1.195684         0.902825
 H         0.307003         2.063660        -0.462957
 H        -0.607064         0.500083        -0.609927
 H         2.468488        -0.951989        -1.819108
 H         3.203055         0.811615        -1.717666
 H         2.996872        -2.591654        -0.056374
 H         3.078005        -1.777592         1.559490
 H         4.460425         1.884215         1.384352
 H         3.997188         2.174635        -0.329987
 H         2.400676         0.784039         1.772983
