19
Iteration:   792
 C         0.116614         0.853760        -0.280941
 C         1.523198         0.271237        -0.050790
 C         2.525689         0.052456        -1.225095
 C         3.366768        -0.409073         0.031980
 C         2.635400        -1.699085         0.515071
 O         1.334152        -1.086231         0.557811
 O         4.687879         0.157677         0.125638
 C         3.937599         1.483224         0.529667
 C         2.703939         0.702313         0.877546
 H        -0.174843         1.069828         0.725835
 H         0.163442         1.788596        -0.784183
 H        -0.681708         0.148728        -0.482344
 H         2.290822        -0.794235        -1.941659
 H         2.992090         0.896820        -1.721205
 H         2.793517        -2.559176        -0.177512
 H         3.035895        -1.865812         1.536734
 H         4.506337         1.748967         1.542292
 H         3.876312         2.213193        -0.368271
 H         2.424470         0.662758         2.061139
