19
Iteration:  4442charge 0 multiplicity 1
 C         0.053508         0.897091        -0.205258
 C         1.459095         0.298044        -0.086099
 C         2.428808        -0.022555        -1.219521
 C         3.339396        -0.408981         0.014250
 C         2.687152        -1.707393         0.584408
 O         1.338262        -1.051811         0.626490
 O         4.701105         0.065528         0.061249
 C         4.210949         1.383471         0.478456
 C         2.683753         0.926349         0.864894
 H        -0.459814         0.821783         0.790140
 H         0.008575         1.904092        -0.679956
 H        -0.649773         0.229084        -0.902690
 H         1.850933        -0.638143        -1.858974
 H         2.812337         0.947817        -1.704139
 H         2.476406        -2.580724        -0.114394
 H         2.960576        -2.197615         1.560276
 H         4.669425         1.854074         1.370714
 H         4.074703         1.931664        -0.435139
 H         2.570818         0.628967         1.895401
