19
Iteration:  2302charge 0 multiplicity 1
 C         0.195664         1.051050        -0.156642
 C         1.497687         0.303125        -0.026893
 C         2.450915        -0.174477        -1.198956
 C         3.360384        -0.393949         0.062981
 C         2.678905        -1.626554         0.618340
 O         1.302443        -1.168405         0.434466
 O         4.671181         0.196854         0.128659
 C         4.008706         1.471538         0.472688
 C         2.659220         0.666351         0.783641
 H        -0.232152         1.240087         0.842729
 H         0.458312         2.096744        -0.582002
 H        -0.599958         0.515863        -0.781316
 H         2.095234        -1.199907        -1.495901
 H         2.787426         0.532760        -1.942816
 H         2.639309        -2.563151         0.077481
 H         2.951899        -1.780165         1.723696
 H         4.769816         2.048979         1.122602
 H         3.885871         2.093851        -0.413276
 H         2.735214         0.503596         1.870170
