19
Iteration:   444
 C         0.058102         0.856161        -0.267859
 C         1.472376         0.258165        -0.058810
 C         2.531170         0.066467        -1.219683
 C         3.336675        -0.415591         0.034602
 C         2.713863        -1.736351         0.594368
 O         1.314671        -1.068259         0.540726
 O         4.763188         0.185851         0.062192
 C         3.956627         1.404105         0.535741
 C         2.666442         0.747550         0.886424
 H        -0.417369         1.254893         0.710074
 H         0.174906         1.735193        -0.894123
 H        -0.721669         0.138520        -0.616386
 H         2.386996        -0.624836        -2.123230
 H         2.969626         1.053337        -1.373896
 H         2.640893        -2.649996         0.046977
 H         3.084188        -1.963033         1.584370
 H         4.583020         1.782228         1.446173
 H         3.921395         2.246227        -0.264271
 H         2.599378         0.490286         1.874307
