19
Iteration:  2985charge 0 multiplicity 1
 C         0.129930         0.892016        -0.174027
 C         1.454553         0.284985        -0.129409
 C         2.476604         0.001858        -1.178979
 C         3.279194        -0.404147         0.073680
 C         2.660972        -1.616863         0.659386
 O         1.341087        -1.122797         0.526844
 O         4.600888         0.042408         0.025245
 C         4.166274         1.379059         0.435616
 C         2.708074         0.842862         0.870789
 H        -0.327238         0.962373         0.771312
 H         0.326589         1.980176        -0.571496
 H        -0.650038         0.435717        -0.794274
 H         2.265608        -0.865221        -1.756339
 H         2.755122         0.962554        -1.693259
 H         2.916982        -2.544596         0.016436
 H         3.103695        -1.658797         1.685878
 H         4.700849         1.902108         1.328008
 H         4.171937         2.156658        -0.320953
 H         2.442418         0.900035         1.908626
