19
Iteration:  4518charge 0 multiplicity 1
 C         0.234759         1.044436        -0.114485
 C         1.465302         0.300036        -0.026954
 C         2.431257        -0.128041        -1.192328
 C         3.364175        -0.502630         0.038078
 C         2.733253        -1.669169         0.550813
 O         1.293402        -1.137680         0.501398
 O         4.713458         0.156034         0.063528
 C         3.953051         1.392512         0.442816
 C         2.641538         0.811434         0.886105
 H        -0.041718         1.279444         0.918264
 H         0.656728         1.844555        -0.700682
 H        -0.726503         0.789214        -0.673407
 H         2.155648        -0.996885        -1.735350
 H         2.820184         0.612962        -1.975589
 H         2.839900        -2.458409        -0.149245
 H         2.959478        -1.809084         1.569953
 H         4.462838         2.006545         1.190130
 H         3.746637         2.082489        -0.340053
 H         2.425584         0.876071         1.944551
