19
Iteration:  2362
 C         0.058281         0.791945        -0.257468
 C         1.410902         0.336315        -0.021223
 C         2.425233        -0.003123        -1.229649
 C         3.389480        -0.384728         0.053416
 C         2.670857        -1.623398         0.516585
 O         1.337946        -0.960357         0.628331
 O         4.738731         0.053208         0.178401
 C         4.090393         1.384761         0.484426
 C         2.708404         0.753749         0.789254
 H        -0.301095         1.209359         0.720591
 H         0.074458         1.621900        -0.930931
 H        -0.632100         0.031127        -0.651908
 H         2.000846        -0.721274        -1.913721
 H         2.849785         0.799629        -1.978083
 H         2.614622        -2.500102        -0.224355
 H         3.139364        -2.000774         1.400336
 H         4.662918         1.755773         1.291934
 H         3.987095         1.996245        -0.425625
 H         2.626243         0.769779         1.885621
