19
Iteration:  3367
 C         0.223456         0.993921        -0.215898
 C         1.536944         0.372161         0.010539
 C         2.466228        -0.069905        -1.140204
 C         3.346522        -0.398474         0.076607
 C         2.653197        -1.719196         0.564492
 O         1.315944        -1.140030         0.506780
 O         4.664407         0.101775         0.056970
 C         3.945838         1.450385         0.409222
 C         2.708682         0.813431         0.907513
 H        -0.094867         1.119813         0.857594
 H         0.029441         1.902312        -0.881162
 H        -0.440021         0.225833        -0.708065
 H         1.975897        -0.879019        -1.680101
 H         2.817544         0.649252        -1.849785
 H         2.844831        -2.480997        -0.267990
 H         2.726308        -2.305135         1.568154
 H         4.616544         1.943552         1.147019
 H         3.871909         1.995153        -0.471868
 H         2.686448         0.646021         2.017087
