19
Iteration:   744charge 0 multiplicity 1
 C         0.092508         0.817375        -0.136140
 C         1.511861         0.323693        -0.116642
 C         2.466642         0.024106        -1.278245
 C         3.352080        -0.358601         0.064814
 C         2.657078        -1.600553         0.603015
 O         1.353468        -1.137775         0.477096
 O         4.704480         0.077810         0.186377
 C         4.041733         1.487967         0.529461
 C         2.659522         0.749677         0.803252
 H        -0.721093         0.458694         0.609805
 H         0.112424         1.924535        -0.246483
 H        -0.265683         0.371154        -1.066042
 H         2.057211        -0.684814        -1.980177
 H         2.805696         0.914868        -1.867469
 H         2.787584        -2.467133        -0.018598
 H         3.050877        -1.849897         1.590360
 H         4.487123         1.904273         1.441408
 H         4.049176         2.060767        -0.417373
 H         2.623918         0.512986         1.803617
