19
Iteration:  3987
 C         0.120078         0.860657        -0.218319
 C         1.512662         0.254605        -0.032415
 C         2.395954         0.021053        -1.260520
 C         3.405159        -0.438311        -0.021697
 C         2.568808        -1.659771         0.668583
 O         1.242813        -0.969649         0.585183
 O         4.781348         0.127257         0.072324
 C         4.127450         1.390974         0.501606
 C         2.731181         0.723820         0.817995
 H        -0.410502         1.085850         0.753138
 H         0.033548         1.840658        -0.744692
 H        -0.454873         0.003206        -0.677973
 H         2.203431        -0.911984        -1.912306
 H         2.492485         0.963739        -1.849396
 H         2.435227        -2.503057        -0.080745
 H         2.788807        -2.021256         1.660797
 H         4.714427         1.685285         1.332111
 H         4.231015         2.173304        -0.258414
 H         2.538272         0.839310         1.891409
