19
Iteration:  3348
 C         0.218510         1.111865        -0.144847
 C         1.469920         0.261925        -0.007288
 C         2.439578        -0.088488        -1.155807
 C         3.398446        -0.475425         0.112669
 C         2.702240        -1.693738         0.572189
 O         1.292686        -1.163694         0.489573
 O         4.639311         0.210091         0.078991
 C         3.999694         1.451807         0.371014
 C         2.686615         0.643106         0.851720
 H        -0.291648         1.533408         0.839899
 H         0.652463         1.911946        -0.847445
 H        -0.640679         0.645889        -0.732913
 H         2.258474        -0.899096        -1.874743
 H         2.886459         0.723333        -1.838603
 H         2.725038        -2.635864         0.017325
 H         3.026294        -1.863399         1.630729
 H         4.456266         2.098143         1.260027
 H         3.880255         2.038122        -0.591063
 H         2.441883         0.676447         1.941630
