19
Iteration:  2029charge 0 multiplicity 1
 C         0.143688         1.065601        -0.167911
 C         1.432713         0.282935        -0.071385
 C         2.437942        -0.063798        -1.190327
 C         3.385233        -0.410538         0.040282
 C         2.653332        -1.710428         0.571371
 O         1.342036        -1.159907         0.491094
 O         4.770501         0.181190         0.152058
 C         3.945637         1.413956         0.440965
 C         2.662535         0.702424         0.894209
 H        -0.345785         1.391363         0.736856
 H         0.458449         1.843341        -0.802888
 H        -0.433373         0.405218        -0.863522
 H         2.298019        -0.949174        -1.764493
 H         2.956770         0.709144        -1.882879
 H         2.840908        -2.497035        -0.151978
 H         2.812225        -1.947631         1.657680
 H         4.509646         2.216293         1.196487
 H         3.823377         2.012819        -0.541751
 H         2.634570         0.619853         2.019820
