19
Iteration:   928charge 0 multiplicity 1
 C         0.139686         0.845630        -0.278872
 C         1.548014         0.294855        -0.053632
 C         2.426724         0.038418        -1.187687
 C         3.346501        -0.385950         0.101380
 C         2.723710        -1.631954         0.531045
 O         1.305831        -1.162613         0.575090
 O         4.646739         0.183231         0.088545
 C         4.052998         1.368439         0.487123
 C         2.626065         0.790178         0.893197
 H        -0.613111         0.749480         0.507437
 H         0.291252         1.907717        -0.430862
 H        -0.281452         0.399078        -1.170234
 H         2.187315        -0.722724        -1.951934
 H         2.940156         0.867769        -1.662345
 H         2.855999        -2.465723        -0.245028
 H         3.049655        -1.958555         1.606437
 H         4.514485         1.683567         1.369968
 H         4.168374         2.089255        -0.376576
 H         2.566905         0.794627         1.925070
