19
Iteration:   996
 C         0.110422         0.978770        -0.145061
 C         1.536338         0.278500        -0.101344
 C         2.506225        -0.085608        -1.152151
 C         3.333933        -0.449477         0.095285
 C         2.810461        -1.667359         0.567487
 O         1.306955        -1.171066         0.400154
 O         4.640274         0.176630         0.161890
 C         3.972780         1.430583         0.445489
 C         2.621468         0.790937         0.846068
 H         0.042903         1.376255         0.951109
 H         0.269801         1.861424        -0.742712
 H        -0.825823         0.424429        -0.368674
 H         2.229626        -0.736908        -2.028865
 H         2.988734         0.835427        -1.492833
 H         2.996908        -2.605746        -0.142896
 H         2.866073        -1.999275         1.707122
 H         4.517501         1.919984         1.222460
 H         3.945038         2.139284        -0.567453
 H         2.400804         0.884164         1.893943
