19
Iteration:  1861charge 0 multiplicity 1
 C         0.161320         1.098687        -0.198174
 C         1.493374         0.268380        -0.099338
 C         2.465290        -0.081785        -1.134884
 C         3.397086        -0.429796         0.120639
 C         2.742743        -1.694337         0.611122
 O         1.317725        -1.177815         0.428628
 O         4.689194         0.191119         0.094162
 C         3.940297         1.395988         0.455474
 C         2.621106         0.732737         0.873363
 H        -0.253453         1.329064         0.778777
 H         0.384110         1.986202        -0.821018
 H        -0.592836         0.501655        -0.675504
 H         2.123859        -0.809736        -1.863263
 H         2.886041         0.769946        -1.695083
 H         2.596802        -2.662566         0.081219
 H         3.034209        -1.853289         1.672395
 H         4.628523         1.968262         1.222907
 H         3.935343         2.157557        -0.363268
 H         2.580499         0.427877         1.854050
