19
Iteration:  4081charge 0 multiplicity 1
 C         0.230096         1.073217        -0.059286
 C         1.468350         0.284874        -0.117793
 C         2.563663        -0.182915        -1.229659
 C         3.350198        -0.436025         0.083465
 C         2.677466        -1.577227         0.631990
 O         1.326421        -1.082231         0.496186
 O         4.672021         0.079353         0.092393
 C         3.935561         1.408455         0.389622
 C         2.602064         0.738393         0.817371
 H        -0.041599         1.041269         0.975996
 H         0.489397         2.127216        -0.120697
 H        -0.559422         0.631487        -0.702284
 H         2.333603        -1.037197        -1.930257
 H         2.890118         0.738149        -1.825067
 H         2.579069        -2.492248        -0.141527
 H         2.901598        -1.784131         1.790331
 H         4.494113         2.079571         1.141724
 H         3.848138         1.967384        -0.584504
 H         2.449003         0.575151         1.883679
