19
Iteration:   233charge 0 multiplicity 1
 C         0.193919         0.934805        -0.061806
 C         1.495118         0.243230        -0.093096
 C         2.561061        -0.000436        -1.201824
 C         3.329392        -0.410243         0.045564
 C         2.654787        -1.649427         0.540195
 O         1.307340        -1.210861         0.484613
 O         4.683106         0.196862         0.177744
 C         3.974832         1.474315         0.361284
 C         2.630208         0.726379         0.813648
 H        -0.304850         0.800587         0.874651
 H         0.466317         2.031007        -0.181965
 H        -0.473368         0.567189        -0.858417
 H         2.127468        -0.903003        -1.703111
 H         2.918282         0.939267        -1.685705
 H         2.750968        -2.451841        -0.130539
 H         2.979893        -1.987243         1.472773
 H         4.406074         1.884398         1.418370
 H         4.004950         2.251088        -0.418971
 H         2.493178         0.774349         1.860769
