19
Iteration:  4667charge 0 multiplicity 1
 C         0.180581         1.105174        -0.170076
 C         1.474089         0.294186        -0.029186
 C         2.385516        -0.161920        -1.156300
 C         3.388964        -0.408353         0.056255
 C         2.733062        -1.756292         0.576099
 O         1.277793        -1.129857         0.480326
 O         4.683600         0.185184         0.074378
 C         4.044157         1.509836         0.382798
 C         2.696674         0.632305         0.923380
 H        -0.001353         1.511950         0.798715
 H         0.181763         2.113445        -0.585606
 H        -0.594195         0.477008        -0.589068
 H         2.052379        -0.828550        -1.937742
 H         2.859099         0.749455        -1.729984
 H         2.761213        -2.612365        -0.121867
 H         2.814791        -2.198116         1.591569
 H         4.584429         1.984176         1.210687
 H         4.050650         2.291775        -0.385520
 H         2.361922         0.552107         1.972426
