19
Iteration:  2944charge 0 multiplicity 1
 C         0.024761         0.869679        -0.279045
 C         1.503102         0.342459        -0.013179
 C         2.383436        -0.036265        -1.240579
 C         3.358919        -0.435426        -0.035392
 C         2.602074        -1.680964         0.592681
 O         1.352273        -0.992851         0.660738
 O         4.696398         0.149852         0.087166
 C         4.140671         1.447168         0.502448
 C         2.791456         0.669485         0.837802
 H        -0.382041         0.666633         0.707619
 H         0.051493         1.930688        -0.590191
 H        -0.425714         0.433243        -1.099868
 H         1.929660        -0.906734        -1.756818
 H         2.860160         0.679238        -1.915648
 H         2.354392        -2.562470        -0.003585
 H         2.957450        -1.857939         1.571772
 H         4.797217         1.878843         1.228273
 H         4.049866         2.093219        -0.301123
 H         2.668001         0.534629         1.916953
