19
Iteration:  4515charge 0 multiplicity 1
 C         0.227997         1.052014        -0.122391
 C         1.467309         0.310720        -0.006749
 C         2.452036        -0.124397        -1.171428
 C         3.370161        -0.504765         0.019410
 C         2.733554        -1.674722         0.565083
 O         1.287353        -1.136964         0.498379
 O         4.703648         0.163947         0.061660
 C         3.950372         1.393151         0.444482
 C         2.633989         0.800707         0.858072
 H         0.002629         1.261067         0.900392
 H         0.594960         1.903342        -0.708432
 H        -0.703646         0.765952        -0.590515
 H         2.180308        -1.010950        -1.769317
 H         2.804392         0.679205        -1.875689
 H         2.923807        -2.506724        -0.160816
 H         2.913816        -1.885496         1.625268
 H         4.489239         1.966810         1.237872
 H         3.792493         2.049365        -0.498020
 H         2.408534         0.818163         1.936394
