19
Iteration:  2378
 C        -0.011781         0.900452        -0.265707
 C         1.537419         0.362062        -0.056325
 C         2.373347        -0.071491        -1.161334
 C         3.354158        -0.402597         0.017089
 C         2.689859        -1.624779         0.522598
 O         1.340465        -1.063990         0.606293
 O         4.696047         0.083082         0.138109
 C         4.151561         1.420138         0.472515
 C         2.723501         0.781569         0.844432
 H        -0.646933         1.023099         0.594351
 H        -0.125824         1.807692        -0.942413
 H        -0.450453         0.048356        -0.790364
 H         2.235690        -1.014851        -1.811573
 H         2.653489         0.752090        -1.718373
 H         2.702351        -2.446682        -0.152586
 H         2.814241        -1.971856         1.589360
 H         4.600272         1.960709         1.398194
 H         4.462882         2.153489        -0.372124
 H         2.645212         0.511637         1.916839
