19
Iteration:  3203charge 0 multiplicity 1
 C         0.256394         1.015030        -0.146276
 C         1.516503         0.220818        -0.095735
 C         2.419445        -0.167122        -1.232431
 C         3.367459        -0.408330         0.124182
 C         2.697755        -1.676510         0.690118
 O         1.297049        -1.066648         0.486072
 O         4.625398         0.198239        -0.011094
 C         4.019972         1.463527         0.518441
 C         2.638072         0.739907         0.798391
 H         0.166261         1.162301         0.919554
 H         0.323707         2.010785        -0.665148
 H        -0.620652         0.653395        -0.619240
 H         2.222069        -1.000323        -1.883677
 H         2.619787         0.618915        -1.878283
 H         2.710023        -2.463943        -0.006397
 H         2.873266        -2.140546         1.657623
 H         4.584462         1.593582         1.489460
 H         4.088054         2.240085        -0.243887
 H         2.572308         0.485160         1.840700
