19
Iteration:  4886
 C         0.076817         0.868453        -0.179419
 C         1.466140         0.355003        -0.011017
 C         2.388001         0.037570        -1.157758
 C         3.311347        -0.404543         0.036855
 C         2.612020        -1.658584         0.537167
 O         1.327710        -1.006950         0.577438
 O         4.786070         0.078046         0.085719
 C         4.129791         1.382107         0.401191
 C         2.748667         0.703781         0.836481
 H        -0.661677         0.714192         0.639849
 H         0.154396         1.935156        -0.502961
 H        -0.520567         0.332013        -1.074049
 H         2.120901        -0.829856        -1.854447
 H         2.753353         1.000750        -1.618626
 H         2.497245        -2.642529         0.097726
 H         3.021825        -1.869549         1.554690
 H         4.660727         1.718235         1.278703
 H         4.063610         2.075561        -0.498568
 H         2.590799         0.536204         1.903404
