19
Iteration:  1749
 C         0.127512         0.973066        -0.236596
 C         1.467220         0.323463         0.008254
 C         2.504582        -0.077207        -1.158279
 C         3.396388        -0.438718         0.061121
 C         2.666188        -1.685160         0.639694
 O         1.295252        -1.148145         0.462237
 O         4.707146         0.176194         0.107951
 C         4.016422         1.451519         0.473470
 C         2.671221         0.695921         0.814613
 H        -0.475495         0.862733         0.678339
 H         0.280874         2.087779        -0.374033
 H        -0.494004         0.719087        -1.108480
 H         2.211776        -0.704772        -1.990389
 H         3.020451         0.747902        -1.716489
 H         2.609766        -2.577624         0.004434
 H         3.060262        -1.738759         1.641924
 H         4.468070         2.123810         1.218535
 H         3.902833         2.079797        -0.459047
 H         2.472919         0.540922         1.852965
