19
Iteration:  2110
 C         0.115376         0.851423        -0.239160
 C         1.505960         0.267384        -0.072977
 C         2.477485         0.003957        -1.282847
 C         3.332516        -0.405434         0.020572
 C         2.626927        -1.630335         0.621276
 O         1.341146        -1.082285         0.573923
 O         4.663267         0.120399         0.118623
 C         4.098668         1.419224         0.512964
 C         2.702055         0.785829         0.861207
 H        -0.414207         0.684056         0.712932
 H         0.203314         1.952968        -0.431157
 H        -0.411828         0.358484        -1.007196
 H         1.989150        -0.771934        -1.979284
 H         2.606967         0.928019        -1.752994
 H         2.778743        -2.482468        -0.081253
 H         2.867173        -2.017446         1.572799
 H         4.583459         1.847745         1.411673
 H         4.189193         2.118119        -0.467528
 H         2.520825         0.777712         1.987254
