19
Iteration:  2420
 C         0.195911         1.065960        -0.191107
 C         1.458932         0.270884        -0.021746
 C         2.583559        -0.128257        -1.227021
 C         3.373068        -0.460407         0.042863
 C         2.648052        -1.657373         0.687448
 O         1.315717        -1.095440         0.516251
 O         4.683669         0.153926         0.052054
 C         3.907030         1.419491         0.417965
 C         2.679441         0.692246         0.828275
 H        -0.271644         0.785877         0.706874
 H         0.392127         2.113410        -0.204267
 H        -0.440063         0.577227        -0.930290
 H         2.237981        -0.822767        -2.067273
 H         2.875347         0.854846        -1.533225
 H         2.597771        -2.609999         0.186348
 H         3.045417        -1.644977         1.730006
 H         4.481452         1.943234         1.152924
 H         3.771305         2.301960        -0.384035
 H         2.457749         0.639611         1.902327
