19
Iteration:  4707charge 0 multiplicity 1
 C         0.182059         0.950446        -0.139924
 C         1.527044         0.300978        -0.086769
 C         2.428809         0.053422        -1.200286
 C         3.391637        -0.480430         0.030988
 C         2.690603        -1.680042         0.606595
 O         1.312265        -1.028774         0.572102
 O         4.674749         0.058508         0.099910
 C         4.013920         1.442852         0.422671
 C         2.624302         0.684864         0.815993
 H        -0.297924         0.875198         0.947262
 H         0.120662         2.039576        -0.560134
 H        -0.434513         0.360634        -0.824355
 H         2.175891        -0.673192        -2.011587
 H         2.556585         0.960929        -1.777617
 H         2.597264        -2.536351        -0.062606
 H         3.134961        -1.997860         1.556496
 H         4.793674         1.937181         1.166374
 H         4.006706         2.188673        -0.413216
 H         2.542968         0.611305         1.934140
