19
Iteration:  2006charge 0 multiplicity 1
 C         0.261982         1.042206        -0.168908
 C         1.503608         0.251739        -0.058960
 C         2.425584        -0.122921        -1.207541
 C         3.418485        -0.425381         0.103046
 C         2.710636        -1.761311         0.527383
 O         1.258133        -1.122203         0.487966
 O         4.620281         0.208623         0.181783
 C         3.934602         1.482982         0.441679
 C         2.714582         0.746091         0.812369
 H        -0.003645         1.437677         0.829640
 H         0.440007         1.827241        -0.854720
 H        -0.477913         0.340524        -0.621661
 H         2.205020        -1.004810        -1.815086
 H         2.689592         0.759855        -1.856629
 H         2.622384        -2.594521        -0.162041
 H         2.950854        -1.943193         1.608116
 H         4.638541         1.903893         1.344348
 H         3.862494         2.292868        -0.360138
 H         2.668885         0.546049         1.881235
