19
Iteration:  4550charge 0 multiplicity 1
 C         0.135043         0.973403        -0.176063
 C         1.498726         0.287150        -0.054267
 C         2.427420        -0.051788        -1.136486
 C         3.355008        -0.499356        -0.048873
 C         2.699515        -1.675954         0.568238
 O         1.249457        -1.074635         0.621401
 O         4.703392         0.180183         0.110479
 C         4.032358         1.396389         0.432718
 C         2.742350         0.712037         0.759524
 H        -0.359351         1.106096         0.762033
 H         0.353576         2.024162        -0.249243
 H        -0.389391         0.498047        -1.059985
 H         2.111688        -0.716690        -1.905541
 H         2.945980         0.868264        -1.611816
 H         2.646234        -2.600918        -0.047259
 H         3.065147        -1.975267         1.539252
 H         4.436240         1.972487         1.295168
 H         3.888428         2.228544        -0.312949
 H         2.658186         0.709528         1.839745
