19
Iteration:  1522charge 0 multiplicity 1
 C         0.069334         0.902822        -0.227635
 C         1.480609         0.396389        -0.080601
 C         2.441650        -0.044316        -1.231478
 C         3.394035        -0.432875         0.006714
 C         2.676431        -1.688612         0.561379
 O         1.389229        -1.095854         0.543570
 O         4.679317         0.093864         0.223947
 C         4.041378         1.469288         0.502621
 C         2.689904         0.765871         0.764295
 H        -0.214717         1.156419         0.809860
 H        -0.264211         1.882911        -0.688663
 H        -0.569824         0.161070        -0.674771
 H         2.117383        -1.002851        -1.778441
 H         2.901465         0.711373        -1.827419
 H         2.816602        -2.448301        -0.147140
 H         2.830110        -1.927205         1.618656
 H         4.587191         1.837890         1.416439
 H         4.093887         2.209796        -0.206875
 H         2.379151         0.538932         1.751891
