19
Iteration:  1525
 C         0.094161         0.927101        -0.216655
 C         1.488288         0.383708        -0.084199
 C         2.443035        -0.070635        -1.256434
 C         3.393148        -0.438534        -0.025645
 C         2.682822        -1.686156         0.582865
 O         1.388706        -1.089635         0.540369
 O         4.680109         0.084246         0.224339
 C         4.021705         1.491739         0.511318
 C         2.691564         0.758687         0.776068
 H        -0.360928         1.118382         0.822600
 H        -0.290289         1.908492        -0.683606
 H        -0.560309         0.129181        -0.669400
 H         2.157271        -0.924617        -1.773824
 H         2.926508         0.791533        -1.836742
 H         2.815819        -2.515398        -0.138200
 H         2.751943        -2.028387         1.597731
 H         4.516360         1.851598         1.445257
 H         4.019470         2.238622        -0.296767
 H         2.442125         0.636260         1.946134
