19
Iteration:  4345charge 0 multiplicity 1
 C         0.186607         0.983251        -0.110316
 C         1.487640         0.239260        -0.078311
 C         2.463193        -0.031221        -1.198869
 C         3.381278        -0.431298         0.029389
 C         2.640152        -1.615705         0.598710
 O         1.291696        -1.067494         0.575108
 O         4.716509         0.141937         0.132532
 C         3.976553         1.395718         0.381068
 C         2.655029         0.711707         0.759936
 H        -0.070445         1.207602         0.930334
 H         0.255854         1.927945        -0.633382
 H        -0.683292         0.445379        -0.553719
 H         2.103785        -0.876770        -1.774373
 H         2.924647         0.862489        -1.710315
 H         2.771280        -2.552447         0.001334
 H         3.082081        -2.012570         1.550049
 H         4.626411         1.799187         1.187803
 H         4.050289         1.992284        -0.626988
 H         2.608669         0.506159         1.824749
