19
Iteration:  1091
 C         0.151335         0.897705        -0.238577
 C         1.479932         0.247614        -0.019150
 C         2.466942        -0.008140        -1.184642
 C         3.328629        -0.417466         0.059232
 C         2.651210        -1.650238         0.597763
 O         1.349484        -1.103931         0.511079
 O         4.684164         0.189540         0.112454
 C         4.056778         1.507962         0.450866
 C         2.687610         0.634197         0.861435
 H        -0.635442         0.691746         0.499180
 H         0.451297         1.933069        -0.367751
 H        -0.239137         0.447096        -1.149628
 H         2.039736        -0.738762        -1.930470
 H         2.693490         0.834726        -1.780365
 H         2.841340        -2.492742         0.030255
 H         2.871683        -1.780553         1.620583
 H         4.494427         1.825942         1.323795
 H         3.960369         2.209984        -0.326310
 H         2.406521         0.669063         1.879606
