19
Iteration:  2515
 C         0.107393         0.807715        -0.274300
 C         1.529502         0.301606         0.019259
 C         2.424450        -0.021502        -1.174473
 C         3.320834        -0.384613        -0.005012
 C         2.574023        -1.576679         0.674299
 O         1.280759        -1.006449         0.523034
 O         4.715653         0.124116         0.038822
 C         4.194332         1.374226         0.483945
 C         2.720778         0.750200         0.835804
 H        -0.618046         1.225065         0.496790
 H        -0.099247         1.463889        -1.083267
 H        -0.413827        -0.179869        -0.569535
 H         2.049029        -0.939851        -1.640522
 H         2.700930         0.839353        -1.784670
 H         2.730584        -2.459180         0.030477
 H         2.927967        -1.733237         1.679558
 H         4.605167         1.595185         1.425161
 H         4.387598         2.256938        -0.055723
 H         2.622771         0.553878         1.891234
