19
Iteration:  2044charge 0 multiplicity 1
 C         0.155904         0.963907        -0.232716
 C         1.532873         0.245501        -0.012649
 C         2.551553         0.008247        -1.195047
 C         3.373302        -0.426175         0.094273
 C         2.703126        -1.662891         0.578611
 O         1.288631        -1.110474         0.524160
 O         4.645696         0.115481         0.128993
 C         3.985469         1.447707         0.404889
 C         2.653804         0.711578         0.820496
 H        -0.338833         1.031241         0.754119
 H         0.296297         2.058502        -0.517331
 H        -0.637688         0.494955        -0.766360
 H         2.206661        -0.691423        -2.017578
 H         2.720922         0.963588        -1.638912
 H         2.669440        -2.624028         0.008506
 H         3.043301        -1.904623         1.564584
 H         4.478812         1.863304         1.269939
 H         3.977493         2.157696        -0.473237
 H         2.452508         0.621308         1.968052
