19
Iteration:  2687charge 0 multiplicity 1
 C         0.168742         0.841931        -0.292901
 C         1.499375         0.286913         0.004749
 C         2.486573         0.014229        -1.106671
 C         3.318173        -0.437998         0.149513
 C         2.684885        -1.671208         0.536891
 O         1.313436        -0.999007         0.614345
 O         4.607577         0.047509        -0.014950
 C         4.098546         1.460370         0.437147
 C         2.715275         0.800432         0.830681
 H        -0.365072         1.268038         0.567824
 H         0.064772         1.477896        -1.092025
 H        -0.513783         0.049034        -0.596743
 H         2.094350        -0.678815        -1.854190
 H         2.607807         0.955852        -1.606421
 H         2.666288        -2.512773        -0.194195
 H         2.956629        -2.024289         1.596154
 H         4.685290         1.648516         1.433334
 H         4.177646         2.209132        -0.373865
 H         2.521170         0.806542         1.915095
