19
Iteration:  3304
 C         0.129469         1.015336        -0.097426
 C         1.522504         0.249496        -0.087981
 C         2.508707        -0.120289        -1.262916
 C         3.371407        -0.438887        -0.027853
 C         2.716169        -1.719012         0.641085
 O         1.323320        -1.012961         0.537333
 O         4.631127         0.152225         0.112845
 C         4.016706         1.416722         0.467431
 C         2.667929         0.757303         0.787739
 H        -0.471225         0.978916         0.871047
 H         0.323803         2.072170        -0.409324
 H        -0.657343         0.490612        -0.660239
 H         2.096731        -1.009011        -1.779750
 H         2.806568         0.675746        -1.994982
 H         2.681715        -2.576975        -0.011979
 H         2.864156        -1.970544         1.686220
 H         4.637465         1.868800         1.396469
 H         3.994395         2.185266        -0.343837
 H         2.549013         0.640221         1.895540
