19
Iteration:  3783charge 0 multiplicity 1
 C         0.260483         1.138729        -0.139383
 C         1.503580         0.237007        -0.076999
 C         2.424252        -0.145961        -1.222773
 C         3.393449        -0.499865        -0.044519
 C         2.679442        -1.728280         0.595205
 O         1.270813        -1.134731         0.551131
 O         4.667566         0.221051         0.152067
 C         3.990860         1.474301         0.420893
 C         2.688688         0.686268         0.818490
 H        -0.185100         1.209811         0.929195
 H         0.541082         2.223419        -0.399162
 H        -0.587990         0.803352        -0.835902
 H         2.170834        -1.037095        -1.802317
 H         2.623339         0.737488        -1.801008
 H         2.645490        -2.663962         0.093649
 H         2.823431        -1.909148         1.670175
 H         4.243756         2.110435         1.313710
 H         4.013270         2.172481        -0.453640
 H         2.698539         0.530596         1.917032
