19
Iteration:  3185charge 0 multiplicity 1
 C         0.222185         1.107328        -0.079571
 C         1.523928         0.277650        -0.081419
 C         2.561822        -0.096427        -1.186211
 C         3.330394        -0.507093         0.007033
 C         2.684931        -1.632950         0.634993
 O         1.278140        -1.165914         0.524923
 O         4.672517         0.195139         0.025755
 C         3.903250         1.439109         0.442997
 C         2.655086         0.671064         0.809437
 H        -0.152420         1.414038         0.930648
 H         0.464859         1.969769        -0.657064
 H        -0.566539         0.532672        -0.591793
 H         2.212453        -0.890997        -1.943187
 H         3.134467         0.644421        -1.829680
 H         2.827890        -2.700369         0.339869
 H         2.962265        -1.616894         1.695638
 H         4.533459         1.777400         1.339987
 H         3.776305         2.077676        -0.441244
 H         2.303941         0.726244         1.869876
