19
Iteration:  1374charge 0 multiplicity 1
 C         0.116977         0.836115        -0.255407
 C         1.496242         0.282668         0.001919
 C         2.420548        -0.006948        -1.199341
 C         3.347281        -0.399250         0.082910
 C         2.609042        -1.636796         0.565357
 O         1.312577        -1.089336         0.460210
 O         4.731307         0.071558         0.128482
 C         4.074964         1.523667         0.518680
 C         2.699047         0.786126         0.846153
 H        -0.296207         0.978421         0.726407
 H         0.150008         1.800295        -0.654749
 H        -0.580383         0.226325        -0.779038
 H         2.225060        -0.789119        -1.847568
 H         2.960578         0.643741        -1.897272
 H         2.731458        -2.616436         0.005007
 H         2.858052        -1.937974         1.586182
 H         4.707994         1.969258         1.314422
 H         4.028554         2.170526        -0.435434
 H         2.631835         0.722853         1.936646
