19
Iteration:  4063charge 0 multiplicity 1
 C         0.187854         1.055977        -0.055970
 C         1.573696         0.264631        -0.085324
 C         2.537171        -0.084610        -1.297713
 C         3.405840        -0.465045         0.031028
 C         2.603914        -1.744298         0.625882
 O         1.216986        -1.065778         0.571333
 O         4.668272         0.185958         0.167181
 C         3.963617         1.430590         0.344611
 C         2.726051         0.680302         0.765516
 H        -0.257586         1.077255         0.992549
 H         0.391235         2.119854        -0.332141
 H        -0.572372         0.746835        -0.824607
 H         2.134997        -1.046567        -1.679946
 H         3.068739         0.690245        -1.815767
 H         2.672410        -2.586864         0.050801
 H         2.939886        -1.740132         1.577790
 H         4.361835         2.037609         1.086000
 H         3.887799         2.021038        -0.542145
 H         2.519035         0.614370         1.831315
