19
Iteration:  3186
 C         0.229428         1.108237        -0.078045
 C         1.521222         0.273534        -0.089830
 C         2.558565        -0.101386        -1.192782
 C         3.327516        -0.494230         0.011130
 C         2.690816        -1.636273         0.636509
 O         1.272777        -1.161021         0.525489
 O         4.672423         0.196565         0.018833
 C         3.907384         1.431187         0.446945
 C         2.652418         0.672642         0.817936
 H        -0.162035         1.413856         0.931641
 H         0.486280         1.981681        -0.646103
 H        -0.577564         0.483798        -0.582908
 H         2.214547        -0.911354        -1.927178
 H         3.160412         0.656184        -1.835482
 H         2.845324        -2.731147         0.310021
 H         2.951726        -1.613495         1.730987
 H         4.484797         1.777258         1.338326
 H         3.810798         2.107170        -0.439546
 H         2.300464         0.728924         1.879329
