19
Iteration:  1527
 C         0.099536         0.942972        -0.205327
 C         1.498714         0.371513        -0.091584
 C         2.449083        -0.077778        -1.265572
 C         3.386849        -0.438252        -0.033665
 C         2.687550        -1.679335         0.589184
 O         1.381320        -1.084036         0.536963
 O         4.682861         0.083666         0.221508
 C         4.011899         1.497481         0.520719
 C         2.688919         0.751859         0.791030
 H        -0.421140         1.065845         0.796642
 H        -0.226352         1.875169        -0.685323
 H        -0.535878         0.127054        -0.654626
 H         2.152202        -0.919827        -1.832345
 H         2.910035         0.794419        -1.830749
 H         2.797727        -2.578288        -0.133887
 H         2.757701        -2.090506         1.617882
 H         4.459554         1.859704         1.431754
 H         3.995799         2.257518        -0.376622
 H         2.508624         0.704520         1.971312
