19
Iteration:    63
 C         0.125018         0.867139        -0.183087
 C         1.517079         0.247923        -0.022840
 C         2.355366        -0.015311        -1.232972
 C         3.421553        -0.456325         0.088162
 C         2.751100        -1.698646         0.586350
 O         1.285486        -1.008148         0.413067
 O         4.659008         0.176283         0.104709
 C         3.983337         1.479576         0.495295
 C         2.796074         0.684756         0.884352
 H        -0.580889         0.732715         0.781648
 H         0.084257         1.937710        -0.352105
 H        -0.246122         0.257379        -1.052522
 H         1.947942        -0.804549        -1.843104
 H         2.777272         0.873740        -1.710131
 H         2.756273        -2.641643         0.054612
 H         2.879993        -1.696443         1.683016
 H         4.561106         1.949722         1.244940
 H         3.972981         2.206773        -0.469908
 H         2.632216         0.695863         2.088583
