19
Iteration:   417
 C         0.235640         0.960549        -0.217513
 C         1.506704         0.271015        -0.043700
 C         2.406750        -0.077683        -1.175040
 C         3.359108        -0.414704         0.030787
 C         2.793882        -1.698830         0.573566
 O         1.254999        -1.143493         0.458910
 O         4.679960         0.259371         0.115101
 C         3.934622         1.472203         0.524782
 C         2.666325         0.694828         0.847846
 H        -0.325240         1.033573         0.731163
 H         0.352303         1.997770        -0.629514
 H        -0.403916         0.338007        -0.849942
 H         2.181959        -0.906914        -1.858480
 H         2.845978         0.731129        -1.795201
 H         2.745183        -2.701798         0.014202
 H         3.097531        -1.830982         1.649392
 H         4.473833         1.819777         1.400410
 H         3.943859         2.190270        -0.251358
 H         2.578923         0.498974         2.009856
