19
Iteration:   137charge 0 multiplicity 1
 C         0.134714         0.900156        -0.204511
 C         1.571853         0.350128         0.033967
 C         2.457286        -0.046173        -1.275963
 C         3.431121        -0.388048        -0.057355
 C         2.677993        -1.656980         0.568443
 O         1.255694        -1.117138         0.507019
 O         4.716869         0.184725         0.177235
 C         3.928609         1.483397         0.478332
 C         2.723865         0.638536         0.910953
 H        -0.353841         1.218075         0.768635
 H         0.107900         1.761334        -0.793807
 H        -0.454375         0.073810        -0.570507
 H         2.036784        -0.969888        -1.860563
 H         2.536940         0.950202        -1.895009
 H         2.734229        -2.468083        -0.265244
 H         3.151584        -2.055656         1.534439
 H         4.460666         2.034602         1.221605
 H         3.850046         2.054975        -0.406213
 H         2.556574         0.459515         1.972294
