19
Iteration:  3518
 C         0.124014         1.035547        -0.205881
 C         1.446271         0.254548        -0.078286
 C         2.380896        -0.092187        -1.187656
 C         3.369284        -0.437969         0.040808
 C         2.719955        -1.677090         0.538255
 O         1.335347        -1.100004         0.577444
 O         4.702622         0.110764         0.133571
 C         4.049717         1.433419         0.445381
 C         2.674574         0.771007         0.799273
 H        -0.112138         1.295657         0.837719
 H         0.305313         2.045554        -0.671388
 H        -0.774182         0.466083        -0.521619
 H         2.328459        -0.951172        -1.937994
 H         2.892105         0.731987        -1.737357
 H         2.761075        -2.622419         0.038167
 H         2.958395        -1.785417         1.594885
 H         4.678007         1.700295         1.358048
 H         4.123386         2.361245        -0.365581
 H         2.343129         0.644517         1.901095
