19
Iteration:  3058charge 0 multiplicity 1
 C         0.187691         1.075098        -0.191833
 C         1.486751         0.314393        -0.054661
 C         2.431257        -0.102079        -1.162938
 C         3.379622        -0.390260         0.135102
 C         2.670549        -1.760917         0.563716
 O         1.351791        -1.160967         0.575077
 O         4.699794         0.128098         0.034887
 C         3.980663         1.384030         0.413454
 C         2.648582         0.794228         0.801088
 H        -0.164055         1.309379         0.844459
 H         0.333246         2.004977        -0.712679
 H        -0.699967         0.686089        -0.796305
 H         2.217489        -0.950057        -1.766171
 H         2.918132         0.779179        -1.656048
 H         2.700581        -2.615934        -0.051415
 H         2.875218        -1.861083         1.624596
 H         4.434728         1.863614         1.262519
 H         3.994924         2.249567        -0.349519
 H         2.433988         0.788811         1.888894
