19
Iteration:  2898
 C         0.147247         1.089597        -0.094293
 C         1.512870         0.249589        -0.070328
 C         2.504433        -0.035503        -1.202521
 C         3.297802        -0.465720         0.111331
 C         2.675433        -1.749516         0.657377
 O         1.309543        -1.197035         0.516507
 O         4.685262         0.167191         0.107258
 C         4.041939         1.457829         0.282555
 C         2.662697         0.754794         0.838150
 H        -0.174372         1.293634         0.887699
 H         0.364443         1.985861        -0.744812
 H        -0.575589         0.664051        -0.765101
 H         2.280991        -0.708927        -2.004719
 H         2.800677         0.993688        -1.624158
 H         2.753730        -2.621291        -0.035123
 H         2.844050        -1.918750         1.719028
 H         4.553609         2.092719         1.094367
 H         3.975124         2.009064        -0.564190
 H         2.440057         0.576430         1.887693
