19
Iteration:  1469charge 0 multiplicity 1
 C         0.122534         0.938262        -0.273163
 C         1.501461         0.308892        -0.043870
 C         2.462549         0.032226        -1.211285
 C         3.367494        -0.461444         0.038137
 C         2.691782        -1.678200         0.627903
 O         1.297412        -1.084510         0.538523
 O         4.698789         0.188337         0.108841
 C         4.031664         1.380974         0.455410
 C         2.693792         0.666999         0.906588
 H        -0.389596         1.001042         0.734450
 H         0.025905         1.917860        -0.907827
 H        -0.334012         0.110709        -0.877073
 H         2.183592        -0.639995        -2.026088
 H         2.981111         0.837054        -1.695079
 H         2.807093        -2.494399        -0.078089
 H         2.815071        -1.962607         1.653068
 H         4.497248         2.016180         1.291589
 H         4.003995         2.082598        -0.353869
 H         2.306308         0.727027         2.003737
