19
Iteration:  3228charge 0 multiplicity 1
 C         0.093901         0.954151        -0.231608
 C         1.484340         0.340494        -0.004027
 C         2.421468        -0.106912        -1.233391
 C         3.328152        -0.383817        -0.018221
 C         2.698537        -1.686351         0.548361
 O         1.273049        -1.072932         0.658816
 O         4.742713         0.155776         0.090812
 C         4.103014         1.414595         0.484093
 C         2.674612         0.758151         0.819096
 H        -0.424205         1.058051         0.727230
 H         0.064290         1.871671        -0.760675
 H        -0.427594         0.330074        -0.911814
 H         2.251045        -0.978190        -1.917676
 H         2.815040         0.622536        -1.973177
 H         2.614919        -2.590444        -0.011904
 H         3.126324        -1.984847         1.472289
 H         4.435530         1.717455         1.548076
 H         4.233343         2.095902        -0.348803
 H         2.698928         0.563740         1.911641
