19
Iteration:   805charge 0 multiplicity 1
 C         0.237468         0.891907        -0.223191
 C         1.539546         0.275320        -0.089632
 C         2.503994         0.013857        -1.166598
 C         3.351018        -0.450556         0.020435
 C         2.695646        -1.707727         0.538201
 O         1.306563        -1.095421         0.510613
 O         4.628067         0.252155         0.121107
 C         3.955899         1.432386         0.516760
 C         2.667052         0.669489         0.913044
 H        -0.086256         1.352560         0.631868
 H         0.139853         1.635676        -1.069189
 H        -0.369876         0.082506        -0.684289
 H         2.097383        -0.567770        -2.007065
 H         2.759813         1.057713        -1.585516
 H         2.504750        -2.699266         0.024674
 H         2.980954        -2.036334         1.618579
 H         4.487418         2.110324         1.228562
 H         3.810395         2.152613        -0.340479
 H         2.604111         0.418749         2.065201
