19
Iteration:  3923
 C         0.244163         1.088348        -0.143203
 C         1.478626         0.223695         0.006958
 C         2.497334        -0.055429        -1.220841
 C         3.394937        -0.433726         0.039577
 C         2.623701        -1.653216         0.648667
 O         1.226110        -1.156627         0.504951
 O         4.648236         0.164238         0.166739
 C         4.023250         1.462203         0.287597
 C         2.751903         0.645082         0.828793
 H        -0.274048         1.071882         0.817669
 H         0.517027         2.117132        -0.379116
 H        -0.423694         0.703352        -0.911013
 H         2.225383        -0.975722        -1.797475
 H         2.796675         0.857373        -1.733962
 H         2.674004        -2.513076        -0.132882
 H         2.890392        -1.898032         1.716120
 H         4.385598         2.101845         1.090637
 H         3.750690         2.110096        -0.629170
 H         2.589259         0.484422         1.939558
