19
Iteration:  1339
 C         0.096913         0.871127        -0.279155
 C         1.424929         0.273382        -0.047276
 C         2.530940         0.020195        -1.259574
 C         3.388182        -0.376640        -0.000906
 C         2.711788        -1.651710         0.525917
 O         1.336154        -1.060632         0.640653
 O         4.684456         0.055739         0.109688
 C         4.017284         1.435285         0.546131
 C         2.646304         0.779788         0.849338
 H        -0.240835         1.258718         0.642800
 H         0.243409         1.692479        -0.997508
 H        -0.558815         0.135373        -0.699690
 H         2.223698        -0.740201        -1.924997
 H         2.957030         0.871694        -1.633664
 H         2.461332        -2.558614        -0.077135
 H         3.081928        -1.854464         1.519636
 H         4.614836         1.762160         1.478584
 H         3.902598         2.249172        -0.219250
 H         2.478694         0.554044         1.990524
