19
Iteration:  2320
 C         0.091372         1.024951        -0.154553
 C         1.486318         0.268526        -0.108229
 C         2.429668        -0.101935        -1.220532
 C         3.407042        -0.472259         0.100405
 C         2.706546        -1.677077         0.629151
 O         1.299897        -1.107809         0.454306
 O         4.726785         0.144553         0.087272
 C         4.004312         1.436285         0.426990
 C         2.703598         0.786852         0.916955
 H        -0.145885         1.385025         0.823503
 H         0.196702         1.850702        -0.766775
 H        -0.721419         0.406136        -0.560283
 H         2.212129        -0.959148        -1.838650
 H         3.014101         0.791959        -1.703888
 H         2.854120        -2.618862         0.083737
 H         2.755587        -1.888065         1.686896
 H         4.307525         1.964363         1.276565
 H         4.109934         2.072297        -0.594512
 H         2.335563         0.730820         1.939385
