19
Iteration:  2483charge 0 multiplicity 1
 C         0.109994         0.961098        -0.220595
 C         1.483336         0.294590        -0.066716
 C         2.556412        -0.017103        -1.220344
 C         3.306280        -0.400418         0.109050
 C         2.667207        -1.626369         0.604747
 O         1.332416        -1.082131         0.612379
 O         4.655197         0.096116         0.159624
 C         4.088873         1.396373         0.341238
 C         2.667504         0.713779         0.787151
 H        -0.312045         1.033880         0.857985
 H        -0.055747         1.930245        -0.664138
 H        -0.608951         0.218761        -0.746870
 H         2.298842        -0.812245        -1.977445
 H         2.836339         0.967626        -1.639275
 H         2.671295        -2.482145        -0.188362
 H         2.999133        -1.919362         1.614533
 H         4.549866         1.832985         1.135790
 H         3.983194         2.050574        -0.520263
 H         2.571837         0.601622         1.862837
