19
Iteration:   356
 C         0.133093         0.846774        -0.163663
 C         1.481163         0.237141        -0.050371
 C         2.437803         0.057668        -1.248551
 C         3.420240        -0.397523         0.084231
 C         2.609019        -1.653115         0.587967
 O         1.376316        -1.060775         0.463400
 O         4.728161         0.158660         0.179531
 C         3.945481         1.441747         0.422719
 C         2.700926         0.682784         0.837001
 H        -0.493628         0.615463         0.763375
 H         0.206087         1.869213        -0.378861
 H        -0.348178         0.346652        -1.000938
 H         2.174258        -0.820203        -1.913228
 H         2.845243         1.033525        -1.562807
 H         2.573917        -2.559758         0.058917
 H         2.955446        -1.825283         1.587160
 H         4.582463         1.989385         1.234736
 H         3.861903         2.164748        -0.441545
 H         2.531068         0.545186         1.830472
