19
Iteration:  4148charge 0 multiplicity 1
 C         0.083167         0.821195        -0.278902
 C         1.541959         0.353294        -0.028482
 C         2.465687         0.023150        -1.147256
 C         3.326475        -0.399882         0.061179
 C         2.644929        -1.674722         0.576883
 O         1.350151        -0.984035         0.671399
 O         4.634876         0.071402         0.020282
 C         4.132720         1.357880         0.445566
 C         2.666072         0.783264         0.865174
 H        -0.508447         1.162314         0.568746
 H         0.164110         1.726057        -0.881478
 H        -0.527578         0.059064        -0.830231
 H         2.182671        -0.560288        -2.061991
 H         2.833597         0.931336        -1.636268
 H         2.495983        -2.469534        -0.323297
 H         3.153156        -2.282559         1.471581
 H         4.676379         1.701908         1.345309
 H         4.263777         2.039576        -0.453162
 H         2.462784         0.637674         1.908392
