19
Iteration:   483charge 0 multiplicity 1
 C         0.012342         0.847472        -0.195984
 C         1.429750         0.309181        -0.120808
 C         2.388661        -0.034422        -1.261778
 C         3.365812        -0.374772         0.019108
 C         2.765480        -1.691070         0.481665
 O         1.324968        -1.108813         0.516723
 O         4.698037         0.121379         0.237711
 C         4.110027         1.457404         0.546653
 C         2.730454         0.881206         0.892142
 H        -0.383071         1.080464         0.812514
 H         0.023405         1.706674        -0.846544
 H        -0.531306         0.073892        -0.690148
 H         2.336351        -0.849490        -1.912740
 H         2.895117         0.640319        -1.999262
 H         2.757378        -2.531328        -0.302290
 H         2.943049        -2.023316         1.530325
 H         4.561488         1.962658         1.367068
 H         4.066937         2.027604        -0.302181
 H         2.621142         0.486533         2.041550
