19
Iteration:  2200
 C         0.071624         0.906272        -0.141519
 C         1.446627         0.258057        -0.204184
 C         2.582338         0.026530        -1.189008
 C         3.305909        -0.426242        -0.027048
 C         2.728428        -1.659886         0.624130
 O         1.281876        -1.044976         0.607961
 O         4.697921         0.060307         0.091599
 C         4.040215         1.464635         0.522688
 C         2.661980         0.735121         0.804820
 H        -0.214013         1.138396         0.918042
 H         0.120851         1.778878        -0.713185
 H        -0.647294         0.284345        -0.785706
 H         2.417480        -0.742981        -1.946149
 H         2.934014         1.095397        -1.561927
 H         2.863618        -2.601484         0.126476
 H         3.001562        -1.861040         1.662338
 H         4.558711         1.950974         1.246425
 H         4.065576         1.865102        -0.562321
 H         2.463596         0.701091         1.841171
