19
Iteration:  1047
 C         0.075632         0.840856        -0.254672
 C         1.490274         0.274929        -0.072749
 C         2.431146         0.011853        -1.219826
 C         3.361475        -0.397638         0.082588
 C         2.723699        -1.677408         0.530089
 O         1.311905        -1.037074         0.593897
 O         4.695396         0.182334         0.114957
 C         4.097439         1.443825         0.538764
 C         2.644584         0.715634         0.812719
 H        -0.560110         0.709592         0.601954
 H         0.184897         1.847065        -0.563869
 H        -0.357605         0.200573        -1.002657
 H         2.368052        -0.899373        -1.859667
 H         2.721137         0.827906        -1.825283
 H         2.601903        -2.459423        -0.122874
 H         2.911997        -1.994682         1.509192
 H         4.544420         1.770987         1.432312
 H         4.281641         2.090235        -0.279296
 H         2.584563         0.554879         1.865702
