19
Iteration:  4689charge 0 multiplicity 1
 C         0.206331         0.999798        -0.115464
 C         1.467712         0.231263        -0.003568
 C         2.467468        -0.058702        -1.154793
 C         3.340163        -0.375979         0.077810
 C         2.636601        -1.656349         0.498145
 O         1.286634        -1.155392         0.527553
 O         4.677469         0.133980         0.053571
 C         4.016156         1.388175         0.430737
 C         2.716856         0.780687         0.837453
 H        -0.183150         1.442911         0.764389
 H         0.459607         1.960331        -0.595644
 H        -0.512896         0.500464        -0.770412
 H         2.147653        -0.820317        -1.835893
 H         3.010691         0.710209        -1.828310
 H         2.825388        -2.566963        -0.080300
 H         2.889805        -1.915240         1.543538
 H         4.343481         2.035505         1.199706
 H         3.978617         2.073354        -0.383045
 H         2.685200         0.719176         1.940974
