19
Iteration:  2210
 C         0.034456         0.868480        -0.200893
 C         1.480152         0.293613        -0.083652
 C         2.484593         0.022830        -1.209490
 C         3.406730        -0.408705         0.017628
 C         2.705958        -1.621764         0.636613
 O         1.263291        -1.058312         0.556089
 O         4.678689         0.050328         0.108979
 C         4.081019         1.394633         0.476433
 C         2.714177         0.798604         0.814615
 H        -0.471619         0.867525         0.781200
 H        -0.014452         1.837926        -0.603986
 H        -0.564256         0.140563        -0.732332
 H         2.415748        -0.672808        -2.056217
 H         2.990461         0.938316        -1.617950
 H         2.690739        -2.498590         0.005970
 H         3.032173        -1.802686         1.640627
 H         4.555551         1.948093         1.215626
 H         4.146989         2.119585        -0.447373
 H         2.549344         0.586007         1.855752
