19
Iteration:  3750
 C         0.184371         1.046066        -0.224921
 C         1.481422         0.294862        -0.015690
 C         2.487483        -0.062518        -1.174365
 C         3.349103        -0.469058         0.039094
 C         2.767287        -1.723218         0.613039
 O         1.320390        -1.061911         0.502773
 O         4.624016         0.123064         0.025515
 C         4.008751         1.382989         0.414767
 C         2.635372         0.746629         0.915549
 H        -0.361710         0.978866         0.806256
 H         0.423948         2.144760        -0.256883
 H        -0.489669         0.580700        -0.996192
 H         2.319281        -0.889169        -1.872782
 H         2.754898         0.851158        -1.678487
 H         2.661409        -2.683916         0.233109
 H         2.902315        -1.776345         1.708569
 H         4.393839         1.917345         1.302751
 H         4.024162         2.014330        -0.444180
 H         2.583821         0.800974         2.025433
