19
Iteration:  3220charge 0 multiplicity 1
 C         0.158274         0.964509        -0.168282
 C         1.454312         0.279330        -0.068039
 C         2.399363        -0.181400        -1.213333
 C         3.350519        -0.413686        -0.009313
 C         2.632175        -1.678393         0.533563
 O         1.317391        -1.089063         0.608216
 O         4.686534         0.177792         0.063211
 C         4.111998         1.459854         0.551101
 C         2.733359         0.768123         0.806565
 H        -0.361437         1.223073         0.773231
 H         0.333869         1.890226        -0.751208
 H        -0.517939         0.362653        -0.906048
 H         1.976988        -1.066177        -1.738159
 H         2.937994         0.659095        -1.822672
 H         2.699038        -2.638064        -0.118763
 H         2.951130        -1.770601         1.610485
 H         4.518598         1.900978         1.433582
 H         4.203268         2.308682        -0.186368
 H         2.405292         0.838625         1.872612
