19
Iteration:  4049charge 0 multiplicity 1
 C         0.230663         1.047363        -0.127054
 C         1.459860         0.307879        -0.059446
 C         2.391390        -0.145605        -1.177110
 C         3.369073        -0.516785         0.051889
 C         2.613987        -1.686287         0.624122
 O         1.298403        -1.069992         0.525525
 O         4.754000         0.157585         0.163091
 C         4.003602         1.519815         0.369562
 C         2.724817         0.691834         0.757585
 H        -0.231129         0.925924         0.844091
 H         0.337995         2.087992        -0.492768
 H        -0.470492         0.496176        -0.825217
 H         2.133936        -0.737684        -2.111733
 H         2.660009         0.804295        -1.708274
 H         2.541876        -2.655091         0.025820
 H         2.740016        -2.202803         1.621828
 H         4.529166         2.060106         1.208220
 H         4.023162         2.058751        -0.593665
 H         2.668136         0.652024         1.838743
