19
Iteration:  3319charge 0 multiplicity 1
 C         0.291718         1.031978        -0.085487
 C         1.483365         0.270655        -0.105811
 C         2.439245        -0.120056        -1.256380
 C         3.350451        -0.466607         0.006274
 C         2.647399        -1.590681         0.594105
 O         1.291125        -1.137078         0.605899
 O         4.681747         0.187221         0.121655
 C         3.949703         1.455426         0.460497
 C         2.664983         0.646600         0.735987
 H         0.087441         1.130909         0.929983
 H         0.456279         1.964697        -0.513745
 H        -0.416578         0.678803        -0.795338
 H         2.246716        -0.843754        -2.064583
 H         2.902500         0.774201        -1.732239
 H         2.714029        -2.581903         0.154879
 H         3.119521        -1.689156         1.564563
 H         4.271712         1.862942         1.361811
 H         4.023440         2.152812        -0.421455
 H         2.391183         0.526136         1.781837
