19
Iteration:  1305charge 0 multiplicity 1
 C         0.116550         0.986801        -0.169681
 C         1.518577         0.260519        -0.086674
 C         2.485729        -0.082650        -1.192916
 C         3.397772        -0.442764         0.038403
 C         2.706196        -1.721252         0.570697
 O         1.255629        -1.136403         0.475058
 O         4.734606         0.186058         0.144689
 C         3.990687         1.511420         0.482427
 C         2.670000         0.761466         0.861742
 H        -0.454785         1.290759         0.679266
 H         0.272703         1.891516        -0.817375
 H        -0.574996         0.408191        -0.781815
 H         1.935504        -0.801015        -1.810311
 H         2.919803         0.579052        -1.841865
 H         2.542017        -2.702156         0.062387
 H         2.934335        -1.981960         1.606565
 H         4.727629         1.891312         1.321805
 H         4.002470         2.288043        -0.309605
 H         2.517119         0.568868         2.023151
