19
Iteration:  3208charge 0 multiplicity 1
 C         0.226109         1.001289        -0.167588
 C         1.518995         0.206379        -0.104023
 C         2.395754        -0.179274        -1.187703
 C         3.359220        -0.447010         0.101732
 C         2.662848        -1.642377         0.642060
 O         1.322333        -1.068576         0.506250
 O         4.627254         0.198294         0.011760
 C         4.057349         1.498882         0.557581
 C         2.688066         0.761331         0.770892
 H        -0.011375         1.197102         0.913931
 H         0.465637         1.959891        -0.596388
 H        -0.698628         0.510573        -0.627019
 H         2.077141        -1.029003        -1.876689
 H         2.588025         0.676789        -1.965861
 H         2.700509        -2.545008        -0.076285
 H         2.852571        -2.134116         1.626211
 H         4.706239         1.570485         1.438929
 H         4.062375         2.255545        -0.252705
 H         2.452475         0.585095         1.864706
