19
Iteration:  2950charge 0 multiplicity 1
 C         0.021566         0.856952        -0.267837
 C         1.510650         0.338039        -0.014736
 C         2.414590        -0.021893        -1.177615
 C         3.317190        -0.483739        -0.039856
 C         2.622630        -1.635146         0.598735
 O         1.318738        -0.984344         0.639097
 O         4.701370         0.142252         0.070114
 C         4.138144         1.439641         0.510370
 C         2.846240         0.669270         0.786391
 H        -0.564987         0.725021         0.660537
 H        -0.009300         1.951622        -0.456831
 H        -0.477184         0.271587        -1.137477
 H         2.013222        -0.800893        -1.820225
 H         2.826395         0.750928        -1.883715
 H         2.381067        -2.633279         0.120251
 H         3.121474        -1.883826         1.600784
 H         4.684936         1.786572         1.462863
 H         3.988203         2.195281        -0.385645
 H         2.556559         0.666984         1.845031
