19
Iteration:  1944charge 0 multiplicity 1
 C         0.141760         0.790743        -0.220331
 C         1.494132         0.331538        -0.096652
 C         2.347972        -0.003923        -1.153551
 C         3.415607        -0.391721         0.035405
 C         2.625406        -1.586197         0.563251
 O         1.298088        -1.087891         0.486096
 O         4.691204         0.108500         0.160767
 C         4.133303         1.404861         0.475810
 C         2.711365         0.804191         0.863278
 H        -0.512315         0.767130         0.632906
 H         0.013920         1.874206        -0.557858
 H        -0.289976         0.315841        -1.140865
 H         1.923405        -0.857322        -1.649794
 H         2.741396         0.898652        -1.787547
 H         2.753778        -2.541819         0.010429
 H         2.839752        -1.859670         1.610670
 H         4.731163         1.600175         1.310931
 H         4.114301         2.094898        -0.372854
 H         2.711591         0.696525         2.084165
