19
Iteration:   391
 C         0.192711         1.039913        -0.138841
 C         1.488309         0.228383        -0.129341
 C         2.441747        -0.119693        -1.203256
 C         3.400623        -0.378724         0.124967
 C         2.716929        -1.681668         0.498318
 O         1.387155        -1.203016         0.525552
 O         4.634087         0.220478         0.173505
 C         3.928158         1.507569         0.480650
 C         2.610098         0.723092         0.811354
 H        -0.350535         0.912091         0.770560
 H         0.463351         2.092964        -0.200941
 H        -0.452976         0.798157        -0.992042
 H         2.395267        -1.055974        -1.937602
 H         2.852501         0.541397        -1.966650
 H         2.764666        -2.480091        -0.240262
 H         2.968500        -2.080286         1.501503
 H         4.532457         1.886541         1.268677
 H         4.017867         2.089812        -0.475736
 H         2.412772         0.698813         1.862514
