19
Iteration:  1160
 C         0.185935         0.963157        -0.166575
 C         1.464144         0.232170        -0.111448
 C         2.444178        -0.034650        -1.233446
 C         3.424896        -0.413173         0.073106
 C         2.718438        -1.671654         0.524436
 O         1.258925        -1.140256         0.536434
 O         4.680448         0.204636         0.214528
 C         4.039105         1.461310         0.462059
 C         2.635240         0.723824         0.814282
 H        -0.283669         1.261999         0.761582
 H         0.182634         1.766147        -0.870237
 H        -0.564850         0.236535        -0.454779
 H         2.187129        -0.875477        -1.890302
 H         2.960473         0.687131        -1.961917
 H         2.658502        -2.487442        -0.147115
 H         3.164928        -1.851740         1.540034
 H         4.544069         1.781820         1.332298
 H         4.063559         2.115760        -0.459469
 H         2.401480         0.713764         1.886427
