19
Iteration:  2108
 C         0.087917         0.842740        -0.234257
 C         1.507475         0.276505        -0.063248
 C         2.477550        -0.019629        -1.286698
 C         3.319341        -0.391004         0.032966
 C         2.629372        -1.630511         0.616225
 O         1.342624        -1.068356         0.564817
 O         4.671661         0.121924         0.119245
 C         4.119933         1.402956         0.523641
 C         2.712809         0.788267         0.837648
 H        -0.423488         0.696953         0.686464
 H         0.158420         1.942006        -0.421253
 H        -0.421596         0.388788        -1.044990
 H         1.987227        -0.753238        -1.929131
 H         2.590769         0.936832        -1.767130
 H         2.817337        -2.459900        -0.086482
 H         2.912347        -2.011343         1.587374
 H         4.603801         1.888915         1.483552
 H         4.079502         2.073836        -0.438835
 H         2.506477         0.717905         1.967892
