19
Iteration:  3985charge 0 multiplicity 1
 C         0.119352         0.878298        -0.215339
 C         1.516985         0.240869        -0.026034
 C         2.395173         0.004441        -1.250591
 C         3.399737        -0.434310        -0.032764
 C         2.560310        -1.661287         0.657815
 O         1.235438        -0.972280         0.580130
 O         4.784282         0.123186         0.078645
 C         4.138177         1.410625         0.494314
 C         2.733658         0.732030         0.821020
 H        -0.403931         1.059160         0.756634
 H         0.003675         1.874346        -0.727496
 H        -0.433518        -0.037505        -0.643631
 H         2.253523        -0.897265        -1.953350
 H         2.498394         0.908184        -1.893121
 H         2.471490        -2.511081        -0.004425
 H         2.803690        -2.024505         1.622553
 H         4.695293         1.703908         1.364401
 H         4.205604         2.189659        -0.236365
 H         2.523110         0.786371         1.889776
