19
Iteration:  2591
 C         0.208800         1.037915        -0.103790
 C         1.560631         0.252718         0.000556
 C         2.462620        -0.129536        -1.199256
 C         3.415297        -0.432879         0.168187
 C         2.583084        -1.729986         0.616199
 O         1.289114        -1.111122         0.422100
 O         4.675105         0.235969         0.163677
 C         3.983431         1.450118         0.268946
 C         2.706879         0.700578         0.823889
 H        -0.422034         0.986130         0.806418
 H         0.395303         2.034460        -0.308505
 H        -0.554267         0.871576        -0.914962
 H         2.176330        -1.028500        -1.765214
 H         2.791928         0.596547        -1.888887
 H         2.630811        -2.678903         0.138738
 H         2.747375        -1.920659         1.642337
 H         4.524940         2.174326         0.948944
 H         3.803136         1.906602        -0.722699
 H         2.721422         0.782376         1.892413
