19
Iteration:  4769
 C         0.123132         0.983719        -0.145468
 C         1.494688         0.336050        -0.039340
 C         2.477106        -0.037358        -1.197881
 C         3.364384        -0.441958         0.049436
 C         2.636148        -1.662991         0.602126
 O         1.358597        -1.108198         0.561005
 O         4.613816         0.090604         0.031030
 C         4.111204         1.417267         0.427717
 C         2.684986         0.791108         0.851664
 H        -0.487679         0.799098         0.700912
 H         0.205718         1.985932        -0.473131
 H        -0.411829         0.443523        -0.929544
 H         2.074096        -0.764566        -1.943528
 H         2.851481         0.879179        -1.572074
 H         2.540703        -2.516696        -0.153466
 H         3.090674        -2.002078         1.552696
 H         4.592240         1.654523         1.342850
 H         4.005723         2.123780        -0.385372
 H         2.570438         0.559250         1.905379
