19
Iteration:  1341
 C         0.083794         0.872220        -0.297377
 C         1.417700         0.281211        -0.027499
 C         2.520368         0.030049        -1.256085
 C         3.372433        -0.383637         0.005537
 C         2.728297        -1.671806         0.525994
 O         1.322641        -1.058458         0.643012
 O         4.694347         0.063723         0.106521
 C         4.038368         1.428929         0.557291
 C         2.642204         0.786027         0.839560
 H        -0.213507         1.208798         0.658855
 H         0.267304         1.672947        -0.943966
 H        -0.576287         0.132490        -0.647386
 H         2.327404        -0.729459        -1.946050
 H         3.054750         0.882716        -1.682849
 H         2.508200        -2.555382        -0.109176
 H         3.088651        -1.833824         1.524327
 H         4.553826         1.731729         1.439822
 H         3.870105         2.179760        -0.260056
 H         2.497944         0.619878         1.904347
