19
Iteration:  4298charge 0 multiplicity 1
 C         0.072833         0.850945        -0.199992
 C         1.432876         0.260634        -0.039695
 C         2.482466        -0.024599        -1.183961
 C         3.311413        -0.379835         0.052833
 C         2.650253        -1.560070         0.584001
 O         1.281870        -1.021814         0.616333
 O         4.741175         0.054667        -0.031234
 C         4.148958         1.370869         0.475314
 C         2.720757         0.784673         0.863116
 H        -0.520261         1.137967         0.692299
 H         0.081265         1.737172        -0.896996
 H        -0.509462         0.015509        -0.773104
 H         2.320053        -0.788339        -1.922802
 H         2.629338         0.939810        -1.493265
 H         2.754001        -2.418387        -0.144362
 H         3.004072        -1.872662         1.607693
 H         4.511403         1.696924         1.472623
 H         4.234760         2.136317        -0.346509
 H         2.581748         0.768519         1.919188
