19
Iteration:  1719charge 0 multiplicity 1
 C         0.257957         1.004869        -0.219543
 C         1.492428         0.229770        -0.059836
 C         2.456503        -0.172019        -1.226759
 C         3.395340        -0.399537         0.077955
 C         2.653929        -1.653419         0.563054
 O         1.333962        -1.098414         0.511375
 O         4.647794         0.159721         0.115684
 C         3.970402         1.502610         0.515127
 C         2.631605         0.743752         0.846970
 H        -0.216794         1.043842         0.739758
 H         0.650757         2.030981        -0.412286
 H        -0.516048         0.665051        -0.841036
 H         2.111469        -1.008303        -1.791988
 H         2.927152         0.689436        -1.909097
 H         2.699530        -2.536352        -0.094583
 H         3.136912        -2.143260         1.512314
 H         4.280727         2.107609         1.483301
 H         3.784646         2.140656        -0.436271
 H         2.423913         0.466682         1.849808
