19
Iteration:  4447
 C         0.009850         0.864498        -0.204028
 C         1.502381         0.335166        -0.054460
 C         2.420503        -0.026565        -1.228896
 C         3.338922        -0.364598         0.021793
 C         2.689917        -1.701187         0.572882
 O         1.339896        -1.047069         0.615050
 O         4.670616         0.035934         0.074549
 C         4.178015         1.395375         0.489992
 C         2.732948         0.867644         0.845400
 H        -0.462564         0.923467         0.774367
 H         0.088301         1.834235        -0.698519
 H        -0.662002         0.346874        -0.773890
 H         1.854387        -0.751045        -1.924093
 H         2.912996         0.749770        -1.772011
 H         2.613083        -2.460273        -0.236964
 H         2.897759        -2.076425         1.600498
 H         4.683412         1.915771         1.319265
 H         4.192525         2.061773        -0.480801
 H         2.536645         0.700005         1.946216
