19
Iteration:  4980
 C         0.230321         1.038797        -0.050624
 C         1.494870         0.300738        -0.094231
 C         2.373217        -0.083077        -1.212934
 C         3.342347        -0.448778         0.128512
 C         2.693059        -1.711266         0.566945
 O         1.338734        -1.115544         0.488678
 O         4.660449         0.076985         0.072159
 C         4.040877         1.460081         0.418318
 C         2.632104         0.807112         0.786430
 H        -0.170551         1.300775         0.945354
 H         0.325265         1.848854        -0.797907
 H        -0.478189         0.361304        -0.429876
 H         2.216313        -0.823958        -1.932960
 H         2.856106         0.894805        -1.538502
 H         2.818020        -2.636847        -0.032048
 H         2.939351        -2.200393         1.548619
 H         4.478122         1.916078         1.358277
 H         4.149320         2.132738        -0.404721
 H         2.483991         0.966267         1.893289
