19
Iteration:  2556
 C         0.129139         1.009506        -0.238454
 C         1.426313         0.297499        -0.068095
 C         2.476763        -0.104139        -1.218711
 C         3.421107        -0.441102         0.032570
 C         2.710086        -1.653825         0.594856
 O         1.370622        -1.064862         0.667678
 O         4.653765         0.146464         0.089991
 C         3.997044         1.372775         0.437580
 C         2.636136         0.717368         0.776639
 H        -0.294821         1.375212         0.714214
 H         0.407436         1.919011        -0.738393
 H        -0.532159         0.379673        -0.824022
 H         2.310119        -0.887308        -1.899249
 H         2.815237         0.848310        -1.713337
 H         2.554589        -2.514931        -0.019854
 H         2.872685        -1.868923         1.625978
 H         4.424230         1.715953         1.506975
 H         4.264619         2.133754        -0.331241
 H         2.517361         0.723929         1.857470
