19
Iteration:  1807charge 0 multiplicity 1
 C        -0.021370         0.869304        -0.243636
 C         1.483505         0.364172        -0.064592
 C         2.421703        -0.066088        -1.273484
 C         3.376417        -0.382710         0.144074
 C         2.688789        -1.649551         0.473986
 O         1.315862        -1.044902         0.545698
 O         4.755864         0.110453         0.177202
 C         4.071375         1.435626         0.554480
 C         2.757491         0.737087         0.801549
 H        -0.441549         1.066735         0.708657
 H        -0.041984         1.804128        -0.766153
 H        -0.527390         0.104848        -0.743770
 H         2.138532        -1.004707        -1.683938
 H         2.754762         0.722828        -1.964255
 H         2.482680        -2.506846        -0.100587
 H         3.126552        -2.018532         1.408195
 H         4.573718         1.866086         1.529809
 H         4.179367         2.007609        -0.390687
 H         2.565733         0.729418         1.827651
