19
Iteration:  4910charge 0 multiplicity 1
 C         0.161933         0.976378        -0.156282
 C         1.558299         0.340403        -0.025935
 C         2.464548        -0.050598        -1.190337
 C         3.268055        -0.402659         0.092678
 C         2.695994        -1.672838         0.495130
 O         1.316930        -1.097239         0.637419
 O         4.619257         0.059747         0.015565
 C         4.107783         1.397418         0.428798
 C         2.696783         0.834960         0.860153
 H        -0.622554         0.726305         0.600216
 H         0.160524         2.063088        -0.418629
 H        -0.411513         0.452243        -1.075053
 H         2.307199        -0.973540        -1.885119
 H         2.817169         0.905376        -1.568455
 H         2.735097        -2.547575        -0.201961
 H         2.970993        -2.147656         1.445764
 H         4.707131         1.705460         1.267276
 H         3.938624         2.089129        -0.415158
 H         2.268130         0.761345         1.853269
