19
Iteration:  2726charge 0 multiplicity 1
 C         0.125191         1.090149        -0.095006
 C         1.469789         0.270192        -0.115594
 C         2.416350        -0.137683        -1.207377
 C         3.387494        -0.434985         0.024274
 C         2.726316        -1.681372         0.637049
 O         1.295341        -1.075416         0.482397
 O         4.655832         0.153202         0.209331
 C         3.996824         1.482296         0.368812
 C         2.760863         0.627771         0.785138
 H        -0.089913         1.347433         0.961218
 H         0.253701         2.026401        -0.786105
 H        -0.589079         0.367166        -0.492689
 H         2.126655        -1.033958        -1.760031
 H         2.883597         0.678383        -1.877689
 H         2.823558        -2.665825         0.198144
 H         2.910976        -1.874874         1.678865
 H         4.480915         2.116269         1.021279
 H         3.999352         2.054526        -0.572013
 H         2.674057         0.651810         1.890130
