19
Iteration:  1746
 C         0.147234         0.999175        -0.209785
 C         1.472850         0.323843        -0.031741
 C         2.484033        -0.076244        -1.153218
 C         3.406191        -0.462343         0.072603
 C         2.674775        -1.686671         0.625368
 O         1.281919        -1.148952         0.456518
 O         4.690664         0.202168         0.116796
 C         4.028072         1.450626         0.467599
 C         2.692340         0.705347         0.815495
 H        -0.590190         0.851254         0.667973
 H         0.305691         2.062097        -0.412587
 H        -0.463583         0.633368        -1.157537
 H         2.134080        -0.828310        -1.957484
 H         2.977898         0.647600        -1.693895
 H         2.660057        -2.657077         0.051554
 H         3.151224        -1.782502         1.601769
 H         4.369920         2.063921         1.219560
 H         3.886669         2.047934        -0.372163
 H         2.432087         0.573825         1.941091
