19
Iteration:  2894
 C         0.157197         1.101672        -0.093469
 C         1.515633         0.266222        -0.079590
 C         2.483013        -0.035460        -1.243991
 C         3.303784        -0.443435         0.135070
 C         2.678629        -1.730379         0.685147
 O         1.292934        -1.203485         0.489620
 O         4.705725         0.173942         0.104316
 C         4.031081         1.425728         0.328112
 C         2.697726         0.721494         0.824504
 H        -0.161119         1.298257         0.967928
 H         0.345009         1.951125        -0.706725
 H        -0.650412         0.571376        -0.741011
 H         2.238835        -0.789432        -2.036372
 H         2.748206         0.935128        -1.571462
 H         2.737756        -2.583748        -0.021088
 H         2.912171        -1.918555         1.797862
 H         4.564195         2.158400         0.962586
 H         3.791203         2.061670        -0.616886
 H         2.382071         0.620608         1.890024
