19
Iteration:  3192charge 0 multiplicity 1
 C         0.259452         1.084549        -0.088304
 C         1.497590         0.260361        -0.119794
 C         2.524690        -0.124841        -1.256896
 C         3.344592        -0.410817         0.050308
 C         2.718291        -1.688887         0.677387
 O         1.257596        -1.125041         0.516374
 O         4.659102         0.197240        -0.013739
 C         3.940296         1.390878         0.450495
 C         2.629857         0.688581         0.855823
 H        -0.091105         1.343304         0.898577
 H         0.498904         2.045313        -0.620524
 H        -0.501987         0.461573        -0.488982
 H         2.248471        -1.005210        -1.793839
 H         3.062997         0.626838        -1.715703
 H         2.843699        -2.598141         0.150021
 H         2.880070        -1.693610         1.732673
 H         4.275167         1.898459         1.397967
 H         4.026767         2.220451        -0.257328
 H         2.397452         0.654186         1.913532
