19
Iteration:  3941
 C         0.276727         1.060837        -0.120594
 C         1.510246         0.281549        -0.083284
 C         2.416701        -0.068152        -1.183426
 C         3.326502        -0.445922         0.133461
 C         2.693859        -1.729836         0.562620
 O         1.356562        -1.109486         0.497941
 O         4.744123         0.059775         0.133854
 C         3.927274         1.419648         0.338659
 C         2.561864         0.824208         0.811800
 H        -0.269336         1.214356         0.857671
 H         0.526108         2.186346        -0.268904
 H        -0.506735         0.508167        -0.813912
 H         2.020147        -0.835808        -1.953394
 H         2.825545         0.901677        -1.584630
 H         2.688900        -2.770703         0.181578
 H         2.856568        -1.725722         1.640500
 H         4.436885         2.029511         1.083067
 H         4.019790         1.938114        -0.584895
 H         2.524291         0.744225         1.917285
