19
Iteration:   940
 C         0.138934         0.906741        -0.293295
 C         1.455843         0.298660        -0.018481
 C         2.535233         0.019999        -1.247681
 C         3.341284        -0.382201         0.008538
 C         2.671535        -1.693267         0.584746
 O         1.386275        -1.120285         0.595151
 O         4.641793         0.140671         0.100669
 C         3.970468         1.490998         0.524054
 C         2.698939         0.691012         0.874652
 H        -0.413033         0.838403         0.696045
 H         0.233975         1.942749        -0.564041
 H        -0.374755         0.429205        -1.121253
 H         2.198636        -0.825110        -1.903308
 H         2.764150         0.918369        -1.776990
 H         2.738959        -2.608527        -0.132362
 H         3.001646        -2.084049         1.637119
 H         4.474189         1.903348         1.319075
 H         3.922385         2.277489        -0.225855
 H         2.548260         0.409401         1.847840
