19
Iteration:  1601charge 0 multiplicity 1
 C         0.225601         0.979345        -0.256500
 C         1.548858         0.264093        -0.051334
 C         2.456064        -0.136591        -1.222935
 C         3.359553        -0.413999         0.080162
 C         2.664810        -1.612875         0.553510
 O         1.324204        -1.095039         0.524633
 O         4.668869         0.129093         0.135221
 C         3.941568         1.490600         0.492011
 C         2.695013         0.719609         0.875596
 H        -0.551497         0.862807         0.558853
 H         0.267259         2.132507        -0.418259
 H        -0.551349         0.610914        -0.981450
 H         2.248534        -0.947503        -1.869743
 H         2.644992         0.874810        -1.839042
 H         2.630849        -2.549111         0.048507
 H         3.173713        -1.903289         1.474965
 H         4.421791         1.986812         1.350921
 H         3.886560         2.022302        -0.402102
 H         2.534932         0.391683         1.971990
