19
Iteration:  4951
 C         0.201549         1.074176        -0.065279
 C         1.425481         0.301800        -0.072392
 C         2.456184        -0.110132        -1.274102
 C         3.375772        -0.447099        -0.032109
 C         2.684532        -1.673539         0.614170
 O         1.245433        -1.063151         0.518262
 O         4.716889         0.166178         0.090189
 C         3.999629         1.440637         0.445200
 C         2.690793         0.609717         0.871450
 H        -0.205373         1.272797         0.925216
 H         0.406356         2.067763        -0.461182
 H        -0.430529         0.327340        -0.740248
 H         2.269380        -1.061355        -1.880479
 H         2.935781         0.831871        -1.594669
 H         2.658721        -2.643546         0.093669
 H         3.121854        -1.670417         1.636904
 H         4.527769         2.056594         1.200006
 H         3.772392         1.930650        -0.594320
 H         2.823023         0.402907         1.929913
