19
Iteration:   896
 C        -0.027778         0.791092        -0.205155
 C         1.481659         0.283002        -0.091602
 C         2.488703         0.027425        -1.242231
 C         3.390950        -0.369029         0.103809
 C         2.641738        -1.614143         0.554037
 O         1.308515        -1.097398         0.485701
 O         4.698198         0.148036         0.165456
 C         4.076947         1.450502         0.456262
 C         2.769394         0.737591         0.907100
 H        -0.677631         0.563039         0.700295
 H        -0.000169         1.864235        -0.356328
 H        -0.412381         0.553223        -1.188212
 H         2.192020        -0.843775        -1.873409
 H         3.011381         0.846014        -1.712899
 H         2.781095        -2.544963        -0.090225
 H         2.919175        -1.976690         1.624488
 H         4.533043         1.920823         1.222478
 H         4.221758         2.117737        -0.353386
 H         2.753373         0.525322         1.920333
