19
Iteration:  4921charge 0 multiplicity 1
 C         0.207659         0.971460        -0.151226
 C         1.455210         0.349085        -0.062078
 C         2.432333        -0.050162        -1.139172
 C         3.335662        -0.387576         0.075416
 C         2.599133        -1.736330         0.548306
 O         1.344797        -1.105970         0.600604
 O         4.677098         0.129021         0.029613
 C         4.067758         1.397938         0.422977
 C         2.641380         0.747600         0.831634
 H        -0.307467         0.875628         0.846270
 H         0.452135         2.059846        -0.298270
 H        -0.262039         0.528160        -1.165940
 H         2.141941        -0.869853        -1.939090
 H         2.826975         0.691375        -1.824229
 H         2.594017        -2.525241        -0.243446
 H         3.076042        -1.922740         1.513415
 H         4.622155         1.828553         1.255484
 H         4.251787         2.165568        -0.358432
 H         2.667923         0.803455         1.919771
