19
Iteration:  4885
 C         0.077226         0.865463        -0.176030
 C         1.472006         0.354483        -0.010017
 C         2.381027         0.036244        -1.166682
 C         3.313702        -0.404470         0.035586
 C         2.606509        -1.659132         0.538736
 O         1.323719        -1.009274         0.576003
 O         4.789738         0.080404         0.088311
 C         4.136187         1.381805         0.399487
 C         2.753406         0.699966         0.831808
 H        -0.665116         0.747241         0.636261
 H         0.129952         1.933196        -0.495792
 H        -0.471991         0.323448        -1.055205
 H         2.142037        -0.825409        -1.819584
 H         2.730698         1.022917        -1.587446
 H         2.493490        -2.633411         0.092211
 H         3.001264        -1.829277         1.572444
 H         4.655427         1.744509         1.293143
 H         4.037139         2.082897        -0.489432
 H         2.546108         0.515853         1.887216
