19
Iteration:   344
 C         0.128513         0.795868        -0.215593
 C         1.517553         0.328859        -0.064665
 C         2.423645         0.007542        -1.159170
 C         3.307468        -0.373851         0.059404
 C         2.712600        -1.633250         0.581483
 O         1.302937        -1.099392         0.429583
 O         4.690317         0.145994         0.125069
 C         4.111042         1.441646         0.480861
 C         2.681139         0.744974         0.894543
 H        -0.354057         0.656002         0.826785
 H        -0.007709         1.824564        -0.469477
 H        -0.403374         0.171241        -0.920039
 H         2.151533        -0.781684        -1.834232
 H         2.556682         0.820893        -1.900699
 H         2.877245        -2.492398         0.000181
 H         2.848165        -1.806912         1.618056
 H         4.519741         1.948892         1.469382
 H         4.007835         2.115303        -0.398449
 H         2.620127         0.569424         1.905723
