19
Iteration:  3213charge 0 multiplicity 1
 C         0.190105         0.979305        -0.168922
 C         1.484690         0.225570        -0.106553
 C         2.394081        -0.187008        -1.195639
 C         3.359442        -0.453595         0.047194
 C         2.627710        -1.648285         0.573070
 O         1.337278        -1.083832         0.551353
 O         4.643466         0.190239         0.037291
 C         4.086545         1.493607         0.569238
 C         2.734390         0.769724         0.781910
 H        -0.241565         1.237321         0.807330
 H         0.563371         1.964388        -0.607799
 H        -0.624214         0.399505        -0.643762
 H         1.947074        -1.018484        -1.700877
 H         2.708229         0.623624        -1.801149
 H         2.710758        -2.517644        -0.092845
 H         2.838459        -1.932028         1.648399
 H         4.711795         1.804151         1.434678
 H         4.114198         2.317462        -0.164263
 H         2.346194         0.776233         1.790300
