19
Iteration:  2384charge 0 multiplicity 1
 C         0.029878         0.904227        -0.288322
 C         1.491050         0.370628         0.012058
 C         2.404134        -0.125356        -1.196799
 C         3.368351        -0.391596         0.016932
 C         2.658380        -1.666097         0.551071
 O         1.321982        -1.095407         0.578580
 O         4.671999         0.112023         0.107327
 C         4.164746         1.445234         0.504643
 C         2.715974         0.822349         0.858792
 H        -0.520807         1.004035         0.686921
 H        -0.084959         1.835520        -0.805517
 H        -0.495173         0.134982        -0.903943
 H         2.235838        -0.844587        -1.966789
 H         2.765900         0.824359        -1.789406
 H         2.659850        -2.663736        -0.017909
 H         3.033967        -1.905806         1.544104
 H         4.682670         1.807641         1.354459
 H         4.361956         1.990469        -0.423783
 H         2.754630         0.751177         1.947542
