19
Iteration:  2824
 C         0.039356         0.876135        -0.259083
 C         1.461125         0.295110         0.030216
 C         2.429664         0.006530        -1.161691
 C         3.369124        -0.424699         0.044972
 C         2.649675        -1.642030         0.543930
 O         1.341216        -1.034827         0.676029
 O         4.701791         0.067832         0.057931
 C         4.112143         1.364236         0.434010
 C         2.697259         0.811048         0.790506
 H        -0.573367         0.949257         0.656850
 H         0.181143         1.821886        -0.883158
 H        -0.364656         0.242928        -1.019796
 H         2.450773        -0.765365        -1.891789
 H         2.789904         0.972032        -1.638748
 H         2.584061        -2.495592        -0.140032
 H         2.993070        -1.977270         1.501853
 H         4.634903         1.808791         1.302111
 H         4.183565         2.135279        -0.482285
 H         2.620051         0.852537         1.881127
