19
Iteration:  3837charge 0 multiplicity 1
 C         0.112424         0.837096        -0.155549
 C         1.493654         0.370245        -0.006269
 C         2.371245         0.038889        -1.218613
 C         3.294221        -0.461489         0.042070
 C         2.674034        -1.657390         0.566561
 O         1.251353        -1.023191         0.513421
 O         4.746594         0.071111         0.134276
 C         4.189868         1.404142         0.426896
 C         2.743052         0.753810         0.848099
 H        -0.539470         1.106000         0.689503
 H         0.121750         1.552601        -0.965411
 H        -0.451213         0.106680        -0.746172
 H         2.060391        -0.694136        -1.959890
 H         2.959126         0.807655        -1.671820
 H         2.628048        -2.583490         0.049555
 H         2.847628        -1.773568         1.636741
 H         4.528276         2.063941         1.254181
 H         4.039593         2.018579        -0.529237
 H         2.588816         0.715710         1.940679
