19
Iteration:  3094
 C         0.136467         0.865860        -0.256501
 C         1.481229         0.281961         0.000869
 C         2.420402         0.017267        -1.212162
 C         3.311570        -0.418544        -0.033506
 C         2.579966        -1.581499         0.631469
 O         1.301308        -1.021873         0.595495
 O         4.724659         0.077746         0.026531
 C         4.106489         1.381596         0.500023
 C         2.747410         0.753702         0.822613
 H        -0.398786         0.699703         0.630328
 H         0.159642         1.959972        -0.457140
 H        -0.265114         0.173432        -0.905374
 H         2.202387        -0.813973        -1.877761
 H         2.723176         0.879355        -1.783600
 H         2.732030        -2.631680         0.337255
 H         2.942938        -1.541659         1.637302
 H         4.536491         1.644931         1.565307
 H         4.035132         2.172143        -0.288105
 H         2.801896         0.472290         1.847870
