19
Iteration:  1862
 C         0.163638         1.099581        -0.203990
 C         1.493350         0.272031        -0.088468
 C         2.465431        -0.087099        -1.136371
 C         3.391944        -0.425533         0.122437
 C         2.737262        -1.698315         0.607324
 O         1.325087        -1.173760         0.424058
 O         4.685301         0.194280         0.096280
 C         3.943693         1.392264         0.458353
 C         2.625645         0.726545         0.868198
 H        -0.245297         1.304745         0.764994
 H         0.359997         1.960808        -0.783941
 H        -0.604767         0.536340        -0.668704
 H         2.138216        -0.849020        -1.865369
 H         2.833035         0.724609        -1.700136
 H         2.586985        -2.637526         0.070916
 H         3.039354        -1.822135         1.669075
 H         4.617027         1.999363         1.228982
 H         3.934570         2.156020        -0.353663
 H         2.611948         0.451166         1.876555
