19
Iteration:  1117charge 0 multiplicity 1
 C         0.140536         0.987642        -0.151978
 C         1.514090         0.302978        -0.073637
 C         2.547170        -0.072652        -1.194591
 C         3.385914        -0.377338         0.044115
 C         2.724981        -1.745192         0.608626
 O         1.208713        -1.112804         0.457621
 O         4.732925         0.233475         0.175128
 C         3.986352         1.451060         0.406017
 C         2.652354         0.641412         0.845708
 H        -0.299108         0.866824         0.832013
 H         0.334221         1.993741        -0.429022
 H        -0.495505         0.340682        -0.721587
 H         2.307873        -0.876045        -1.883105
 H         2.686119         0.795952        -1.919896
 H         2.906662        -2.659294        -0.017743
 H         2.857996        -1.800996         1.736864
 H         4.359902         2.087585         1.251427
 H         3.766457         1.962146        -0.606191
 H         2.383494         0.615121         1.918257
