19
Iteration:    41
 C         0.053051         0.850386        -0.293767
 C         1.458422         0.370791        -0.025725
 C         2.423293        -0.015234        -1.166352
 C         3.385717        -0.387776        -0.051162
 C         2.649737        -1.624838         0.520314
 O         1.337106        -1.148547         0.628576
 O         4.744517         0.184653         0.110944
 C         4.080940         1.398773         0.521107
 C         2.708464         0.732023         0.861000
 H        -0.621657         0.619062         0.662991
 H        -0.029238         1.935455        -0.299815
 H        -0.241813         0.320041        -1.234346
 H         2.120288        -0.886056        -1.725698
 H         2.746483         0.881059        -1.705686
 H         2.609908        -2.419078        -0.231722
 H         3.040745        -1.921209         1.516859
 H         4.557197         1.938050         1.310928
 H         4.087652         2.149473        -0.445906
 H         2.601665         0.428101         2.034787
