19
Iteration:  4428
 C         0.131629         0.884258        -0.219004
 C         1.467199         0.274152        -0.013138
 C         2.410191         0.022920        -1.149938
 C         3.357426        -0.436558         0.012609
 C         2.611159        -1.644741         0.561344
 O         1.294578        -1.045814         0.652125
 O         4.726049         0.100858         0.046995
 C         4.111241         1.375600         0.413155
 C         2.680420         0.764149         0.798603
 H        -0.422709         0.793128         0.706074
 H         0.223104         1.944973        -0.458812
 H        -0.380548         0.304760        -1.026000
 H         2.485425        -0.700498        -1.941469
 H         2.652498         0.968475        -1.563358
 H         2.668978        -2.491310        -0.053155
 H         2.998125        -1.722928         1.526076
 H         4.723084         1.676505         1.243177
 H         4.301487         2.145374        -0.236028
 H         2.475128         0.830879         1.871773
