19
Iteration:  3434
 C         0.089008         0.881650        -0.180635
 C         1.501225         0.311235        -0.051046
 C         2.362913        -0.064303        -1.188500
 C         3.370423        -0.415439         0.038148
 C         2.703530        -1.578184         0.620809
 O         1.370329        -1.019935         0.506912
 O         4.634476         0.093814         0.097276
 C         4.153735         1.338816         0.475443
 C         2.651747         0.814687         0.773011
 H        -0.315792         0.702030         0.846049
 H        -0.048515         1.999991        -0.316065
 H        -0.410966         0.485333        -1.075575
 H         2.045743        -0.902353        -1.755996
 H         2.798146         0.814583        -1.693538
 H         2.748442        -2.482416        -0.075405
 H         2.964305        -2.005949         1.664363
 H         4.505913         1.790426         1.447611
 H         4.318849         2.010619        -0.285528
 H         2.615119         0.458015         1.823084
