19
Iteration:   666
 C         0.142854         1.025583        -0.226018
 C         1.433325         0.248098        -0.089289
 C         2.462227        -0.063526        -1.262102
 C         3.377467        -0.406711         0.006862
 C         2.738469        -1.668274         0.553325
 O         1.400442        -1.131505         0.563108
 O         4.649944         0.180862         0.150426
 C         3.924648         1.454928         0.548292
 C         2.667479         0.631142         0.897099
 H        -0.214841         1.338811         0.798469
 H         0.201105         1.954006        -0.921844
 H        -0.539838         0.388730        -0.866634
 H         2.465136        -0.743208        -2.118858
 H         2.924128         0.870265        -1.761668
 H         2.917727        -2.485106        -0.135187
 H         2.948363        -1.928026         1.609871
 H         4.368720         1.977610         1.368256
 H         3.804648         2.201638        -0.325144
 H         2.648697         0.485850         1.899814
