19
Iteration:  3908charge 0 multiplicity 1
 C         0.168273         1.073580        -0.142269
 C         1.472312         0.279964        -0.037524
 C         2.487653        -0.178479        -1.193170
 C         3.348609        -0.448614         0.030720
 C         2.635875        -1.727372         0.553618
 O         1.244856        -1.054388         0.547846
 O         4.753492         0.216804         0.078703
 C         4.022583         1.482558         0.436287
 C         2.676312         0.660347         0.886804
 H        -0.412147         1.011813         0.820889
 H         0.363748         2.140874        -0.573002
 H        -0.482135         0.635290        -1.053614
 H         2.235647        -1.016587        -1.932072
 H         2.840099         0.637261        -1.894647
 H         2.644425        -2.770761         0.098612
 H         2.877693        -1.860576         1.614783
 H         4.729748         1.965452         1.107283
 H         4.031952         1.957920        -0.521377
 H         2.744508         0.509633         1.994317
