19
Iteration:  1101
 C         0.154444         0.909671        -0.223114
 C         1.491236         0.226868        -0.041855
 C         2.429329        -0.033191        -1.192613
 C         3.402205        -0.460381         0.018477
 C         2.634158        -1.630275         0.618141
 O         1.299530        -1.132575         0.464846
 O         4.729697         0.195371         0.141758
 C         3.954563         1.514337         0.477438
 C         2.737281         0.716564         0.862965
 H        -0.456774         0.802278         0.703669
 H         0.271445         2.030072        -0.379277
 H        -0.355087         0.523932        -1.145346
 H         2.083306        -0.848439        -1.876891
 H         2.894446         0.807323        -1.618391
 H         2.583020        -2.560287         0.089585
 H         2.890847        -1.814943         1.619327
 H         4.543736         2.056471         1.197821
 H         3.897320         2.135503        -0.353247
 H         2.831217         0.448952         1.919574
