19
Iteration:  2547charge 0 multiplicity 1
 C         0.049657         1.038580        -0.279406
 C         1.483617         0.240284        -0.090537
 C         2.474237        -0.055463        -1.192590
 C         3.320531        -0.436303         0.004001
 C         2.708906        -1.703597         0.655639
 O         1.386654        -1.035624         0.660420
 O         4.669674         0.118431         0.045613
 C         4.096007         1.399655         0.485906
 C         2.619406         0.772638         0.817674
 H        -0.346391         1.230808         0.744810
 H         0.232413         1.776836        -0.975018
 H        -0.652713         0.305090        -0.788728
 H         2.235488        -0.853065        -1.871563
 H         2.815274         0.759274        -1.819569
 H         2.829346        -2.523921        -0.024798
 H         3.089834        -2.033687         1.577862
 H         4.575994         1.555441         1.487133
 H         4.247377         2.231764        -0.186286
 H         2.332696         0.669295         1.849782
