19
Iteration:  4317
 C         0.059671         0.860821        -0.203776
 C         1.539925         0.331836        -0.054578
 C         2.388221        -0.027057        -1.191234
 C         3.350015        -0.404392         0.042014
 C         2.632793        -1.682137         0.603439
 O         1.323701        -1.040200         0.552827
 O         4.649182         0.100267         0.062228
 C         4.157181         1.446668         0.495550
 C         2.733877         0.769765         0.831598
 H        -0.348488         1.246702         0.782089
 H        -0.062213         1.820730        -0.809375
 H        -0.536263         0.029523        -0.595082
 H         1.915402        -0.909355        -1.718039
 H         2.903829         0.655357        -1.919572
 H         2.646812        -2.537504        -0.134238
 H         3.080093        -1.757224         1.625066
 H         4.926213         1.835551         1.163648
 H         4.246062         2.046882        -0.378228
 H         2.609714         0.574964         1.963852
