19
Iteration:  3127
 C         0.054332         0.902967        -0.191738
 C         1.453464         0.331743        -0.081763
 C         2.498692        -0.021037        -1.214966
 C         3.276018        -0.424839         0.132251
 C         2.636419        -1.724444         0.491381
 O         1.381022        -1.008109         0.661292
 O         4.675338         0.058393         0.120241
 C         4.098972         1.413089         0.386296
 C         2.737586         0.807435         0.798949
 H        -0.418958         0.746829         0.742178
 H        -0.143175         1.939030        -0.520652
 H        -0.485531         0.359362        -0.887464
 H         2.267640        -0.912398        -1.777498
 H         2.944819         0.802451        -1.694401
 H         2.707853        -2.422651        -0.295990
 H         2.841126        -2.058962         1.467279
 H         4.643488         1.952170         1.248580
 H         4.315495         2.158790        -0.393965
 H         2.648840         0.722477         1.863722
