19
Iteration:  2363
 C         0.052444         0.800579        -0.256189
 C         1.401488         0.339393        -0.026753
 C         2.426769        -0.002145        -1.222108
 C         3.386235        -0.379009         0.057879
 C         2.673624        -1.621584         0.518753
 O         1.340957        -0.960729         0.627446
 O         4.740768         0.051390         0.179180
 C         4.098253         1.384908         0.484066
 C         2.716949         0.743138         0.783215
 H        -0.316597         1.190302         0.691864
 H         0.071773         1.597425        -0.919808
 H        -0.614220         0.016015        -0.670975
 H         1.954945        -0.742183        -1.869403
 H         2.842602         0.792936        -1.983926
 H         2.646425        -2.464700        -0.230643
 H         3.133949        -2.021024         1.399047
 H         4.634794         1.726734         1.292729
 H         3.965664         2.041727        -0.446867
 H         2.596281         0.742899         1.871540
