19
Iteration:   328
 C        -0.006924         0.838778        -0.188916
 C         1.461894         0.348290        -0.026430
 C         2.489580        -0.028488        -1.213044
 C         3.357281        -0.373120         0.050392
 C         2.712689        -1.608634         0.538176
 O         1.326473        -1.187060         0.483527
 O         4.660417         0.126881         0.071973
 C         4.126408         1.430381         0.577459
 C         2.692691         0.866246         0.832616
 H        -0.644593         0.923612         0.643442
 H         0.049343         1.855869        -0.756238
 H        -0.482332         0.042487        -0.838520
 H         2.104478        -0.928661        -1.820057
 H         3.138840         0.686366        -1.647720
 H         2.784508        -2.594755        -0.105424
 H         3.189141        -1.916638         1.552965
 H         4.724990         1.574440         1.410461
 H         4.215651         2.300414        -0.097597
 H         2.413212         0.850738         2.021226
