19
Iteration:   205charge 0 multiplicity 1
 C         0.014314         0.880561        -0.164894
 C         1.470955         0.260685        -0.119422
 C         2.410700         0.003758        -1.303469
 C         3.392286        -0.420834        -0.023506
 C         2.730104        -1.636513         0.614719
 O         1.397775        -0.998761         0.515755
 O         4.704661         0.149918         0.161486
 C         4.050467         1.461417         0.556157
 C         2.732031         0.639920         0.853395
 H        -0.687097         0.520999         0.697596
 H        -0.029184         1.952234        -0.144793
 H        -0.438344         0.392623        -1.042846
 H         1.868672        -0.835203        -1.853990
 H         2.621649         0.825185        -2.080676
 H         2.594586        -2.547202        -0.101266
 H         2.996402        -1.894898         1.723422
 H         4.583173         1.828436         1.343924
 H         3.934606         2.236970        -0.245606
 H         2.605044         0.349746         2.008405
