19
Iteration:  2263
 C         0.108292         0.955571        -0.236092
 C         1.452633         0.262649        -0.110011
 C         2.518016         0.004438        -1.148762
 C         3.396913        -0.429619         0.066343
 C         2.642823        -1.665680         0.581321
 O         1.361454        -1.054370         0.665566
 O         4.668885         0.133323         0.072898
 C         4.018727         1.392792         0.417860
 C         2.652617         0.696587         0.820347
 H        -0.559428         0.849252         0.649808
 H         0.417052         1.995279        -0.337513
 H        -0.435881         0.727039        -1.088342
 H         2.508331        -0.790181        -1.913989
 H         2.946895         0.812809        -1.718857
 H         2.649271        -2.544868        -0.156334
 H         2.939869        -1.946818         1.558902
 H         4.358760         1.982636         1.289673
 H         4.103122         2.028693        -0.582913
 H         2.395083         0.530563         1.893757
