19
Iteration:  2867
 C         0.192422         0.989335        -0.042671
 C         1.554016         0.285638        -0.032199
 C         2.490356        -0.183773        -1.236231
 C         3.315428        -0.435247        -0.035511
 C         2.657519        -1.621169         0.645778
 O         1.328515        -1.036322         0.428681
 O         4.679432         0.143331         0.144253
 C         3.965760         1.440608         0.404840
 C         2.680921         0.704556         0.790963
 H        -0.163769         1.319951         0.941839
 H         0.339501         1.922078        -0.727324
 H        -0.528055         0.308851        -0.405180
 H         2.015958        -1.029924        -1.651822
 H         2.688316         0.718729        -1.902932
 H         2.633346        -2.636014         0.278811
 H         2.937033        -1.708811         1.675399
 H         4.388630         1.934081         1.327189
 H         4.089250         2.337505        -0.391704
 H         2.487033         0.471001         1.838607
