19
Iteration:  1286charge 0 multiplicity 1
 C         0.163594         1.026017        -0.164117
 C         1.450316         0.283678        -0.064081
 C         2.540002        -0.083037        -1.167566
 C         3.356333        -0.378330         0.153495
 C         2.679815        -1.641810         0.593784
 O         1.334763        -1.176257         0.439921
 O         4.659530         0.163779         0.110868
 C         3.970451         1.411338         0.424139
 C         2.665769         0.703920         0.797273
 H        -0.186892         0.980468         0.836788
 H         0.267229         2.061710        -0.393033
 H        -0.538375         0.613776        -0.823291
 H         2.513327        -0.893914        -1.852002
 H         2.956090         0.805148        -1.628100
 H         2.826789        -2.613738         0.007289
 H         2.789210        -2.033121         1.595489
 H         4.380546         2.106981         1.168478
 H         3.937969         2.122392        -0.400855
 H         2.517278         0.694386         1.894694
