19
Iteration:  2462
 C         0.222103         1.007398        -0.111379
 C         1.508212         0.177951        -0.088968
 C         2.426966        -0.128451        -1.195285
 C         3.373850        -0.449811         0.015147
 C         2.669465        -1.690558         0.538402
 O         1.298768        -1.107376         0.560652
 O         4.708896         0.110219         0.236878
 C         3.970759         1.492780         0.367554
 C         2.651622         0.872764         0.792437
 H        -0.399122         1.167771         0.825519
 H         0.493207         2.018530        -0.394703
 H        -0.511604         0.758604        -0.971133
 H         2.196440        -1.099831        -1.750424
 H         2.828342         0.692627        -1.803773
 H         2.797071        -2.510912        -0.256904
 H         2.957865        -1.957742         1.573026
 H         4.454612         2.016258         1.094803
 H         4.061560         1.996291        -0.634995
 H         2.411930         0.992382         1.846231
