19
Iteration:  3362charge 0 multiplicity 1
 C         0.228463         1.028772        -0.198025
 C         1.527758         0.369858         0.003128
 C         2.467702        -0.118770        -1.105361
 C         3.301442        -0.392756         0.070330
 C         2.668014        -1.711196         0.559179
 O         1.320199        -1.154765         0.490393
 O         4.667362         0.136053         0.074495
 C         3.954417         1.445766         0.369649
 C         2.686268         0.746613         0.903896
 H        -0.105005         1.339666         0.779624
 H         0.163723         1.894184        -0.792687
 H        -0.354055         0.294101        -0.703475
 H         1.950470        -0.933780        -1.630244
 H         2.958634         0.722957        -1.679571
 H         2.874025        -2.442978        -0.192492
 H         2.807297        -2.138507         1.497709
 H         4.602635         1.882383         1.118703
 H         3.879968         2.205239        -0.525382
 H         2.699606         0.565541         1.953537
