19
Iteration:   575
 C         0.218364         0.902118        -0.232416
 C         1.473121         0.197999        -0.136148
 C         2.421449         0.011665        -1.183329
 C         3.327887        -0.393671        -0.020611
 C         2.736909        -1.672554         0.527951
 O         1.303976        -1.092026         0.609965
 O         4.673155         0.239601         0.193694
 C         4.013664         1.467136         0.497729
 C         2.628336         0.627048         0.843238
 H        -0.355525         0.791775         0.739588
 H         0.373926         2.022327        -0.432156
 H        -0.401364         0.530149        -1.149955
 H         2.296372        -0.691733        -2.068317
 H         2.885496         0.856521        -1.605491
 H         2.768239        -2.550184        -0.170041
 H         3.016924        -1.942768         1.567651
 H         4.598394         1.961275         1.333460
 H         4.110791         2.080604        -0.418304
 H         2.520382         0.414706         1.890067
