19
Iteration:  2490
 C         0.066747         0.904613        -0.214092
 C         1.509436         0.297843        -0.163252
 C         2.466274         0.015269        -1.192656
 C         3.362055        -0.446249         0.037748
 C         2.627940        -1.639036         0.646979
 O         1.314775        -1.043130         0.605049
 O         4.681471         0.075224         0.122753
 C         4.059062         1.405256         0.388551
 C         2.747233         0.727390         0.865143
 H        -0.458649         1.124121         0.717728
 H        -0.144637         1.818250        -0.801360
 H        -0.523355         0.135625        -0.677112
 H         2.313212        -0.722194        -1.914665
 H         2.985120         0.953521        -1.528644
 H         2.861522        -2.383809        -0.085917
 H         2.941807        -1.855324         1.651095
 H         4.707646         1.970933         1.192169
 H         4.106734         2.103796        -0.455574
 H         2.494237         0.667172         1.934849
