19
Iteration:  4137
 C         0.094336         0.830242        -0.291898
 C         1.438203         0.276489        -0.014503
 C         2.439016         0.058656        -1.182671
 C         3.345981        -0.427339         0.096092
 C         2.736745        -1.646015         0.520455
 O         1.307879        -0.914642         0.635107
 O         4.674447         0.011859         0.026536
 C         4.072862         1.392338         0.439697
 C         2.726882         0.748759         0.901208
 H        -0.298747         1.067434         0.697766
 H         0.264623         1.719026        -0.894205
 H        -0.609844         0.196916        -0.884186
 H         2.131423        -0.840374        -1.823224
 H         2.949414         0.943827        -1.543699
 H         2.474128        -2.571546        -0.210346
 H         3.042698        -1.987342         1.672527
 H         4.565550         1.858486         1.317778
 H         4.068313         2.163335        -0.401436
 H         2.734954         0.609424         1.960643
