19
Iteration:    85charge 0 multiplicity 1
 C         0.154430         0.983467        -0.083487
 C         1.493875         0.273804        -0.091957
 C         2.605425         0.012937        -1.197456
 C         3.287360        -0.340657         0.070084
 C         2.649412        -1.707318         0.587868
 O         1.329264        -1.259579         0.495658
 O         4.702036         0.172051         0.083491
 C         3.968908         1.424811         0.439115
 C         2.596592         0.758461         0.783672
 H        -0.283912         1.122155         1.046211
 H         0.260501         2.031804        -0.361151
 H        -0.588626         0.439814        -0.733484
 H         2.293017        -0.817887        -1.787628
 H         3.165916         0.794182        -1.721752
 H         2.993153        -2.501901        -0.084441
 H         3.104448        -1.733379         1.608342
 H         4.503352         1.813888         1.244702
 H         3.933201         2.239434        -0.460130
 H         2.332144         0.649563         1.980197
