19
Iteration:  4134
 C         0.100090         0.857501        -0.287001
 C         1.404658         0.265078        -0.024039
 C         2.437714         0.048882        -1.182937
 C         3.347554        -0.427293         0.073083
 C         2.732163        -1.646083         0.518055
 O         1.295066        -0.939547         0.635720
 O         4.694573         0.010231         0.041579
 C         4.048523         1.397704         0.439376
 C         2.769833         0.741332         0.894470
 H        -0.271678         1.068415         0.677217
 H         0.214625         1.776220        -0.856536
 H        -0.505892         0.149856        -0.856601
 H         2.136731        -0.825375        -1.713559
 H         2.914320         0.937238        -1.561992
 H         2.576748        -2.519031        -0.187639
 H         2.924444        -1.816281         1.647354
 H         4.665469         1.894452         1.298584
 H         4.006707         2.211246        -0.361734
 H         2.705719         0.656019         2.003340
