19
Iteration:  3744
 C         0.140678         1.017621        -0.216511
 C         1.466686         0.298342        -0.020201
 C         2.499942        -0.040209        -1.120028
 C         3.294746        -0.431337         0.089832
 C         2.701579        -1.738248         0.594965
 O         1.334835        -1.064087         0.521202
 O         4.636729         0.129725         0.020996
 C         4.038586         1.397231         0.410657
 C         2.687890         0.731196         0.864176
 H        -0.302868         0.787343         0.713886
 H         0.285182         2.049803        -0.497026
 H        -0.499094         0.686707        -1.017978
 H         2.433349        -0.835878        -1.873610
 H         2.898436         0.861945        -1.621810
 H         2.673070        -2.791015         0.115391
 H         3.061045        -1.716503         1.635995
 H         4.589569         1.744003         1.299346
 H         4.110974         2.080695        -0.505100
 H         2.528724         0.775858         1.935683
