19
Iteration:   678charge 0 multiplicity 1
 C         0.166816         1.022352        -0.257411
 C         1.497012         0.205569        -0.016429
 C         2.475938        -0.080554        -1.228890
 C         3.357501        -0.407096         0.053349
 C         2.769530        -1.737577         0.490381
 O         1.362760        -1.130725         0.534888
 O         4.660466         0.195806         0.135145
 C         3.919631         1.531963         0.567641
 C         2.644703         0.692024         0.844891
 H        -0.401979         1.268813         0.702549
 H         0.610622         1.967124        -0.634784
 H        -0.639195         0.568916        -0.853157
 H         2.009169        -0.917276        -1.674560
 H         2.846778         0.809522        -1.856668
 H         2.679675        -2.619151        -0.098331
 H         3.090137        -1.982243         1.514616
 H         4.493052         1.978361         1.393433
 H         3.895664         2.222180        -0.386981
 H         2.362185         0.449891         1.829261
