19
Iteration:  4230charge 0 multiplicity 1
 C         0.208087         1.072036        -0.069330
 C         1.486831         0.247299        -0.074138
 C         2.446839        -0.118647        -1.208280
 C         3.382217        -0.437147         0.158132
 C         2.611898        -1.733156         0.590261
 O         1.285259        -1.161768         0.494607
 O         4.691193         0.220884         0.115559
 C         3.984514         1.464778         0.323821
 C         2.727101         0.737120         0.776517
 H        -0.268863         0.921613         0.988613
 H         0.532515         2.176898        -0.291455
 H        -0.569377         0.819177        -0.855474
 H         2.248804        -0.956032        -1.890895
 H         2.963900         0.777310        -1.612533
 H         2.654904        -2.705860        -0.030625
 H         2.948709        -1.980221         1.668787
 H         4.484836         2.032765         1.144049
 H         4.020601         1.948059        -0.649846
 H         2.477628         0.740355         1.897267
