19
Iteration:   311
 C         0.034420         0.851387        -0.246176
 C         1.441460         0.289797        -0.114622
 C         2.470582         0.013323        -1.178426
 C         3.368919        -0.352406         0.049838
 C         2.733269        -1.705018         0.554141
 O         1.374256        -1.081933         0.590934
 O         4.689878         0.164329         0.036714
 C         4.088933         1.381774         0.590208
 C         2.621167         0.761425         0.798869
 H        -0.231091         1.120583         0.829486
 H         0.031288         1.744075        -0.840306
 H        -0.687455         0.161779        -0.663106
 H         2.328426        -0.800419        -1.917225
 H         2.645130         1.055541        -1.603549
 H         2.900981        -2.455754        -0.162629
 H         2.865241        -2.046180         1.547813
 H         4.432227         1.694640         1.686465
 H         4.480196         2.180184        -0.063063
 H         2.394317         0.654771         1.790697
