19
Iteration:   598
 C         0.058129         0.814795        -0.162332
 C         1.514298         0.311538        -0.069156
 C         2.490564         0.051329        -1.230481
 C         3.363395        -0.388356         0.030568
 C         2.701882        -1.675469         0.524617
 O         1.347918        -1.111306         0.510452
 O         4.738690         0.073133         0.204844
 C         3.980987         1.487635         0.462738
 C         2.624259         0.795609         0.874919
 H        -0.526256         1.000807         0.763994
 H         0.094492         1.828139        -0.762385
 H        -0.470220         0.157344        -0.964395
 H         2.346780        -0.763923        -2.036300
 H         2.802987         0.945060        -1.769114
 H         2.589052        -2.550162        -0.128208
 H         3.081622        -1.965979         1.531709
 H         4.527658         1.817515         1.354633
 H         4.248492         2.124886        -0.393600
 H         2.408615         0.760902         1.890580
