19
Iteration:  3865charge 0 multiplicity 1
 C         0.050501         0.855158        -0.233102
 C         1.484035         0.293676        -0.055190
 C         2.459324         0.009301        -1.197626
 C         3.297073        -0.434319        -0.050755
 C         2.695384        -1.606883         0.572468
 O         1.289105        -1.048997         0.624292
 O         4.662322         0.039487         0.067984
 C         4.206917         1.374665         0.531110
 C         2.724779         0.847547         0.846978
 H        -0.481806         1.121338         0.714931
 H         0.189411         1.903700        -0.692564
 H        -0.717639         0.226471        -0.846027
 H         2.231696        -0.734701        -2.042072
 H         2.951903         0.879505        -1.742236
 H         2.570710        -2.666366         0.078260
 H         3.109165        -1.831494         1.574082
 H         4.732657         1.832552         1.374065
 H         4.033093         2.095229        -0.292923
 H         2.431333         0.763780         1.929250
