19
Iteration:   590
 C         0.124587         0.834602        -0.221221
 C         1.485711         0.248275        -0.031946
 C         2.500187         0.049068        -1.252761
 C         3.391476        -0.406355         0.067134
 C         2.676448        -1.642900         0.528316
 O         1.379783        -1.100021         0.548320
 O         4.657895         0.106590         0.204918
 C         3.973961         1.425080         0.493880
 C         2.692140         0.782258         0.776760
 H        -0.371824         0.867216         0.744434
 H         0.229227         1.913887        -0.555209
 H        -0.520776         0.261773        -0.933130
 H         2.128296        -0.604869        -2.074148
 H         2.645579         1.127273        -1.576015
 H         2.670726        -2.458531        -0.179709
 H         2.985148        -1.965189         1.528659
 H         4.362550         1.923403         1.367418
 H         3.948419         2.241450        -0.415962
 H         2.479932         0.613625         1.820893
