19
Iteration:  2253charge 0 multiplicity 1
 C         0.077058         0.947591        -0.257950
 C         1.480603         0.284762        -0.065728
 C         2.528984        -0.085781        -1.188580
 C         3.304143        -0.397549         0.061866
 C         2.665793        -1.644853         0.544086
 O         1.296881        -1.059225         0.635389
 O         4.702204         0.122263         0.104218
 C         4.051058         1.419909         0.415019
 C         2.718439         0.715543         0.874922
 H        -0.584575         0.709946         0.590225
 H         0.091458         1.997406        -0.394491
 H        -0.349304         0.491221        -1.096630
 H         2.123523        -0.825716        -1.856198
 H         2.893989         0.862672        -1.611403
 H         2.819051        -2.452465        -0.198077
 H         2.980444        -1.967251         1.500544
 H         4.649788         1.806502         1.221684
 H         4.040242         2.251425        -0.446989
 H         2.724914         0.750581         1.955218
