19
Iteration:  2111
 C         0.133040         0.858125        -0.240109
 C         1.504546         0.263134        -0.078605
 C         2.474346         0.014124        -1.277529
 C         3.341457        -0.412853         0.014713
 C         2.627180        -1.630787         0.620462
 O         1.338918        -1.089714         0.578821
 O         4.658919         0.119161         0.118546
 C         4.086062         1.430097         0.504273
 C         2.695023         0.784068         0.874384
 H        -0.412630         0.678815         0.729847
 H         0.226245         1.947815        -0.436211
 H        -0.418879         0.330309        -1.005270
 H         2.006671        -0.773387        -1.997292
 H         2.632443         0.944276        -1.756769
 H         2.748462        -2.497038        -0.078134
 H         2.851218        -2.018625         1.588228
 H         4.570890         1.820695         1.358499
 H         4.249424         2.129730        -0.449944
 H         2.531541         0.805070         1.976833
