19
Iteration:  2919
 C         0.192331         0.961560        -0.188178
 C         1.500308         0.251534         0.016661
 C         2.430904        -0.086745        -1.144259
 C         3.331499        -0.402650         0.093107
 C         2.693480        -1.643524         0.499590
 O         1.298755        -1.070807         0.614753
 O         4.681773         0.090402         0.089433
 C         4.005195         1.412309         0.389332
 C         2.706443         0.777586         0.779151
 H        -0.281722         0.950633         0.761540
 H         0.416593         1.965376        -0.609863
 H        -0.415407         0.511966        -0.991843
 H         2.155009        -0.949408        -1.719703
 H         2.754888         0.841756        -1.724300
 H         2.549585        -2.356289        -0.352156
 H         3.080080        -2.023738         1.479258
 H         4.544892         1.959963         1.221610
 H         4.030191         2.083757        -0.397589
 H         2.443870         0.967109         1.823145
