19
Iteration:  3352
 C         0.214744         1.099026        -0.148898
 C         1.505034         0.311681        -0.016672
 C         2.437318        -0.114292        -1.116851
 C         3.345974        -0.464953         0.128093
 C         2.697305        -1.678614         0.547919
 O         1.300482        -1.164732         0.480640
 O         4.640539         0.205371         0.084679
 C         4.013464         1.451498         0.345089
 C         2.675763         0.636531         0.867581
 H        -0.300618         1.487802         0.657179
 H         0.602693         1.851320        -0.745374
 H        -0.533082         0.513772        -0.620619
 H         2.206353        -0.934419        -1.811179
 H         2.950959         0.664928        -1.703884
 H         2.756184        -2.561336        -0.064438
 H         3.056229        -1.804296         1.531289
 H         4.430422         1.977169         1.142757
 H         3.874367         2.165991        -0.537136
 H         2.510736         0.604018         1.929005
