19
Iteration:  4812
 C         0.273414         1.096518        -0.109701
 C         1.471702         0.278989        -0.011693
 C         2.410675        -0.084042        -1.190276
 C         3.367359        -0.449865         0.006222
 C         2.613329        -1.728620         0.534090
 O         1.330136        -1.152003         0.549766
 O         4.631389         0.190583         0.105398
 C         4.026471         1.517171         0.440274
 C         2.715043         0.632038         0.784179
 H        -0.138307         1.483118         0.801399
 H         0.430630         1.975741        -0.698689
 H        -0.518208         0.451247        -0.583730
 H         2.155667        -1.040898        -1.687629
 H         2.685794         0.819111        -1.649291
 H         2.828792        -2.611731        -0.148781
 H         2.787050        -1.941550         1.593828
 H         4.571468         1.998984         1.223354
 H         3.995165         1.960372        -0.532382
 H         2.569041         0.649275         1.858521
