19
Iteration:  4808
 C         0.252318         1.092658        -0.116439
 C         1.496070         0.231032         0.010840
 C         2.400165        -0.101159        -1.194833
 C         3.387727        -0.445391         0.001434
 C         2.637418        -1.706578         0.554628
 O         1.320813        -1.122664         0.529690
 O         4.635875         0.205061         0.111868
 C         4.001550         1.478008         0.445672
 C         2.728937         0.628054         0.798414
 H        -0.180996         1.566204         0.802948
 H         0.383013         2.051624        -0.701427
 H        -0.507929         0.432191        -0.690822
 H         2.045306        -0.926516        -1.822454
 H         2.671289         0.895882        -1.690966
 H         2.573957        -2.570664        -0.094868
 H         2.817657        -2.008865         1.593214
 H         4.672171         2.085037         1.102210
 H         4.039042         2.022494        -0.543983
 H         2.618269         0.520366         1.883179
