19
Iteration:  1966
 C         0.091971         0.926805        -0.191245
 C         1.465068         0.287816        -0.079908
 C         2.482338        -0.008669        -1.227552
 C         3.305453        -0.424303        -0.005755
 C         2.717058        -1.687622         0.629721
 O         1.286279        -1.053860         0.531042
 O         4.694002         0.120939         0.110698
 C         4.058393         1.438171         0.508485
 C         2.757968         0.718188         0.832227
 H        -0.476577         1.033835         0.718145
 H        -0.053896         1.892604        -0.710764
 H        -0.458708         0.297851        -0.924263
 H         2.351444        -0.848982        -1.873933
 H         2.943942         0.959611        -1.661321
 H         2.893540        -2.579014         0.002227
 H         2.815467        -1.926865         1.690452
 H         4.432642         1.893953         1.407359
 H         4.148408         2.045315        -0.403387
 H         2.470094         0.663640         1.991716
