19
Iteration:  4815
 C         0.271661         1.089410        -0.110296
 C         1.469509         0.305834        -0.030005
 C         2.414803        -0.081528        -1.178699
 C         3.349022        -0.450831         0.018223
 C         2.613630        -1.741131         0.519397
 O         1.323015        -1.167388         0.560861
 O         4.643356         0.174984         0.099881
 C         4.031696         1.518671         0.425312
 C         2.700742         0.655355         0.785645
 H        -0.114413         1.405200         0.891616
 H         0.496725         1.952107        -0.765936
 H        -0.508125         0.533413        -0.493917
 H         2.212386        -1.032200        -1.682040
 H         2.742041         0.802103        -1.745994
 H         2.932565        -2.603269        -0.141513
 H         2.842460        -1.938254         1.592929
 H         4.514046         1.982204         1.357577
 H         3.951174         2.042621        -0.542453
 H         2.542218         0.691284         1.898023
