19
Iteration:  1381charge 0 multiplicity 1
 C         0.152390         0.825580        -0.199735
 C         1.529573         0.292971        -0.016064
 C         2.454774        -0.013291        -1.229865
 C         3.300663        -0.401791         0.036292
 C         2.644983        -1.655638         0.592596
 O         1.267560        -1.062713         0.435000
 O         4.738275         0.093449         0.133324
 C         4.022012         1.473427         0.511875
 C         2.725260         0.780491         0.875454
 H        -0.378379         0.988647         0.754891
 H         0.163167         1.905024        -0.615697
 H        -0.531459         0.291269        -0.903009
 H         2.181592        -1.016185        -1.689068
 H         2.920309         0.699985        -1.846294
 H         2.889899        -2.539907        -0.014845
 H         2.841488        -1.837460         1.653918
 H         4.599550         2.206441         1.196520
 H         4.061391         2.004331        -0.411705
 H         2.492191         0.694627         2.030686
