19
Iteration:  2581
 C         0.284638         1.017821        -0.147278
 C         1.473684         0.248196        -0.071773
 C         2.452698        -0.117328        -1.245048
 C         3.405175        -0.436638         0.020350
 C         2.620341        -1.738011         0.653017
 O         1.263309        -1.090186         0.505228
 O         4.689001         0.204816         0.184340
 C         3.971306         1.525298         0.293120
 C         2.699920         0.706210         0.922069
 H        -0.155032         0.987370         0.878949
 H         0.511169         2.039969        -0.301774
 H        -0.379925         0.472051        -0.917833
 H         2.147170        -1.072060        -1.743076
 H         2.643740         0.676457        -1.894181
 H         2.539237        -2.606950         0.008675
 H         2.634023        -2.007874         1.669635
 H         4.545253         2.145879         0.943139
 H         3.979628         2.013650        -0.674461
 H         2.693384         0.562958         2.002673
