19
Iteration:  4003
 C         0.079502         0.850772        -0.277295
 C         1.518309         0.375573        -0.075608
 C         2.411293         0.043131        -1.175854
 C         3.335713        -0.444516         0.091181
 C         2.630886        -1.628321         0.579707
 O         1.357707        -1.011381         0.659208
 O         4.667860         0.056051         0.021731
 C         4.110700         1.346865         0.472993
 C         2.719116         0.754955         0.820052
 H        -0.387234         1.133986         0.642769
 H         0.200949         1.777391        -0.825203
 H        -0.518318         0.089444        -0.796136
 H         2.014868        -0.460510        -2.035339
 H         3.012512         0.796675        -1.688807
 H         2.721317        -2.600941         0.049082
 H         3.015031        -1.911497         1.634544
 H         4.531293         1.750014         1.456568
 H         4.102609         2.132608        -0.332575
 H         2.521111         0.507623         1.876094
