19
Iteration:   145
 C         0.086001         0.906017        -0.225413
 C         1.470888         0.296010        -0.016147
 C         2.497771        -0.003725        -1.136707
 C         3.376260        -0.409696         0.004660
 C         2.694606        -1.668206         0.531580
 O         1.314339        -1.087265         0.517817
 O         4.709014         0.184765         0.106973
 C         3.993915         1.443010         0.471580
 C         2.721128         0.678581         0.902298
 H        -0.403510         1.021135         0.674468
 H        -0.013089         1.765895        -0.937376
 H        -0.456079         0.089537        -0.711567
 H         2.106924        -0.761335        -1.846315
 H         2.812062         0.929915        -1.598414
 H         2.723772        -2.515844        -0.124242
 H         3.019271        -2.013483         1.487782
 H         4.635365         2.031180         1.249143
 H         3.790842         2.095061        -0.366731
 H         2.616049         0.407016         1.893513
