19
Iteration:  3640charge 0 multiplicity 1
 C         0.243358         1.068546        -0.115656
 C         1.488841         0.355304        -0.113092
 C         2.471534        -0.142611        -1.209149
 C         3.411667        -0.455570         0.076686
 C         2.682035        -1.736250         0.660763
 O         1.254300        -1.128790         0.439544
 O         4.664576         0.195285         0.038110
 C         3.939932         1.469080         0.442698
 C         2.720535         0.661228         0.891327
 H        -0.133638         1.426074         0.857686
 H         0.397866         2.100620        -0.522893
 H        -0.464730         0.428938        -0.649360
 H         2.073094        -1.063697        -1.606323
 H         2.917948         0.526709        -1.967492
 H         2.730605        -2.669561         0.185551
 H         2.767434        -1.860334         1.748354
 H         4.656247         2.021620         1.073629
 H         3.591293         2.181010        -0.294226
 H         2.555765         0.715169         2.018740
