19
Iteration:  3652
 C         0.207805         1.077920        -0.115786
 C         1.529691         0.215614        -0.024909
 C         2.471124        -0.137472        -1.233696
 C         3.293779        -0.443797         0.131445
 C         2.661332        -1.669177         0.665772
 O         1.271297        -1.121069         0.411094
 O         4.657314         0.168875         0.032319
 C         4.010060         1.496135         0.407379
 C         2.735981         0.726535         0.875398
 H        -0.172203         1.216146         0.911610
 H         0.295266         1.885074        -0.819455
 H        -0.577608         0.473324        -0.580070
 H         2.188310        -0.868206        -1.921049
 H         2.934616         0.692102        -1.734558
 H         2.804772        -2.545756         0.070064
 H         2.830388        -1.852089         1.742447
 H         4.418671         1.850592         1.356380
 H         4.106508         2.193182        -0.447334
 H         2.682147         0.510336         1.950857
