19
Iteration:  4797charge 0 multiplicity 1
 C         0.196318         1.058730        -0.153508
 C         1.501819         0.236585         0.006753
 C         2.382334        -0.076754        -1.224034
 C         3.393128        -0.471828        -0.004264
 C         2.703689        -1.681620         0.586825
 O         1.249130        -1.047479         0.529417
 O         4.736129         0.183106         0.102158
 C         3.969200         1.403601         0.389911
 C         2.735104         0.668850         0.911540
 H        -0.251102         1.230688         0.865484
 H         0.590108         1.923063        -0.758676
 H        -0.642544         0.551623        -0.767761
 H         1.948784        -0.682222        -2.010886
 H         2.793604         0.839479        -1.794127
 H         2.546783        -2.541147        -0.027849
 H         3.100477        -1.967351         1.568386
 H         4.444669         1.932646         1.255112
 H         3.654726         2.094245        -0.435553
 H         2.761981         0.307206         1.940423
