19
Iteration:  1538charge 0 multiplicity 1
 C         0.128262         0.937105        -0.147878
 C         1.538248         0.273484        -0.105090
 C         2.490480        -0.083318        -1.267391
 C         3.350001        -0.420193         0.069986
 C         2.690308        -1.663392         0.568619
 O         1.289769        -1.048453         0.509642
 O         4.699660         0.148548         0.177722
 C         3.963869         1.446261         0.503967
 C         2.680828         0.717184         0.823916
 H        -0.360273         0.969988         0.870666
 H         0.390953         1.824667        -0.729835
 H        -0.423077         0.248763        -0.861933
 H         2.129582        -0.760386        -1.998038
 H         2.846430         0.805570        -1.872690
 H         2.568992        -2.605121        -0.050768
 H         3.161618        -1.822473         1.569899
 H         4.395059         2.031161         1.300610
 H         4.095240         2.066575        -0.484270
 H         2.548589         0.664536         2.004839
