19
Iteration:    48
 C         0.051222         0.829065        -0.257350
 C         1.467790         0.377238         0.015546
 C         2.403588        -0.000699        -1.203641
 C         3.355328        -0.396678        -0.023554
 C         2.707017        -1.647546         0.561563
 O         1.282674        -1.091068         0.566496
 O         4.776660         0.176291         0.120865
 C         4.078816         1.467982         0.491837
 C         2.731721         0.669451         0.884507
 H        -0.634607         0.547397         0.492311
 H         0.073255         1.922889        -0.443989
 H        -0.293959         0.387873        -1.180823
 H         1.921572        -0.896678        -1.793626
 H         2.780327         0.746864        -1.973176
 H         2.744442        -2.579743        -0.129350
 H         2.992485        -2.011125         1.575119
 H         4.582552         1.993869         1.348647
 H         3.934277         2.119993        -0.279484
 H         2.697382         0.335522         1.861449
