19
Iteration:  4494
 C         0.187980         1.052725        -0.078401
 C         1.453627         0.260699        -0.116200
 C         2.471509         0.001342        -1.246429
 C         3.342097        -0.493018         0.130413
 C         2.626430        -1.698156         0.622184
 O         1.316546        -1.140522         0.537841
 O         4.670251         0.149082         0.085406
 C         4.029888         1.491537         0.359084
 C         2.746608         0.648171         0.827492
 H        -0.155633         1.274118         0.901032
 H         0.269900         1.753771        -0.887079
 H        -0.639310         0.435328        -0.519928
 H         2.280532        -0.712477        -2.051153
 H         2.928316         0.893192        -1.753467
 H         2.566275        -2.576346         0.003480
 H         2.928382        -1.766015         1.640133
 H         4.441731         1.992314         1.255388
 H         3.890190         2.308181        -0.360481
 H         2.692156         0.604874         1.918508
