19
Iteration:  4954charge 0 multiplicity 1
 C         0.213470         1.067312        -0.068835
 C         1.451821         0.292656        -0.075042
 C         2.478022        -0.072616        -1.263199
 C         3.377093        -0.450783        -0.045218
 C         2.678998        -1.638427         0.607334
 O         1.257874        -1.080217         0.525457
 O         4.694806         0.160802         0.087823
 C         4.002037         1.427317         0.427585
 C         2.660705         0.625173         0.885673
 H        -0.161251         1.240422         0.993191
 H         0.431860         2.076713        -0.529670
 H        -0.623432         0.356967        -0.686474
 H         2.197102        -1.050275        -1.769425
 H         3.013006         0.744537        -1.709189
 H         2.669245        -2.675599         0.157483
 H         3.079989        -1.772716         1.636357
 H         4.408684         2.048587         1.210083
 H         3.876051         1.893747        -0.572895
 H         2.805064         0.352236         1.930811
