19
Iteration:  3531
 C         0.105230         0.930038        -0.118854
 C         1.460409         0.264719        -0.072209
 C         2.546043        -0.037613        -1.218206
 C         3.350002        -0.405169         0.026451
 C         2.663156        -1.660759         0.657731
 O         1.254397        -1.062162         0.552169
 O         4.715975         0.068698         0.049175
 C         4.086139         1.469839         0.498807
 C         2.663499         0.741925         0.745864
 H        -0.348634         1.148397         0.839086
 H         0.178314         1.783186        -0.835439
 H        -0.552773         0.299802        -0.714793
 H         2.091225        -0.693661        -1.921351
 H         2.817778         0.915032        -1.687590
 H         2.611396        -2.496342        -0.054588
 H         3.008689        -1.991028         1.683866
 H         4.417435         1.902295         1.509477
 H         4.372317         2.170538        -0.458048
 H         2.672805         0.728023         1.877993
