19
Iteration:   290charge 0 multiplicity 1
 C         0.186401         0.872993        -0.189408
 C         1.500271         0.227288        -0.040170
 C         2.473523        -0.034030        -1.275838
 C         3.329778        -0.405820        -0.068385
 C         2.672434        -1.630501         0.523031
 O         1.301684        -1.079824         0.592940
 O         4.681851         0.194267         0.129331
 C         3.984231         1.458693         0.581317
 C         2.719524         0.664549         0.858767
 H        -0.211495         1.340172         0.768952
 H         0.297977         1.569524        -0.970876
 H        -0.480141         0.174954        -0.648104
 H         2.194353        -0.773656        -2.189067
 H         2.789136         1.030607        -1.702031
 H         2.572319        -2.511280        -0.087378
 H         3.117453        -1.777377         1.500636
 H         4.492994         2.023432         1.491634
 H         3.820383         2.301001        -0.134292
 H         2.565725         0.461145         1.841940
