19
Iteration:  2900
 C         0.152955         1.075970        -0.107805
 C         1.499906         0.244757        -0.063592
 C         2.513688        -0.030429        -1.174489
 C         3.308653        -0.472297         0.093373
 C         2.670344        -1.754581         0.635688
 O         1.317750        -1.189245         0.531182
 O         4.671620         0.160191         0.109002
 C         4.045753         1.470680         0.281263
 C         2.644312         0.768239         0.839618
 H        -0.213101         1.312600         0.893532
 H         0.393706         2.021373        -0.709051
 H        -0.563435         0.670409        -0.746533
 H         2.290457        -0.694352        -1.996486
 H         2.841660         0.943022        -1.639911
 H         2.776101        -2.627976         0.004822
 H         2.823954        -1.936839         1.653468
 H         4.519905         1.998295         1.122965
 H         4.058965         2.062081        -0.680638
 H         2.501916         0.590214         1.904949
