19
Iteration:  4548
 C         0.150649         0.981491        -0.179151
 C         1.495602         0.298662        -0.038713
 C         2.421004        -0.066511        -1.142153
 C         3.350913        -0.508241        -0.040909
 C         2.703058        -1.670211         0.568597
 O         1.261006        -1.078300         0.613501
 O         4.682728         0.179698         0.111401
 C         4.039187         1.406594         0.440926
 C         2.734754         0.704589         0.755181
 H        -0.316580         1.087979         0.796065
 H         0.378259         2.064609        -0.287153
 H        -0.392294         0.511336        -1.035633
 H         2.147414        -0.778303        -1.936203
 H         2.866718         0.870522        -1.666536
 H         2.716050        -2.605470        -0.135430
 H         3.009149        -1.999550         1.606635
 H         4.441902         2.039022         1.281106
 H         3.912874         2.290912        -0.347825
 H         2.681364         0.645553         1.858919
