19
Iteration:  3491
 C         0.309307         1.102945        -0.179690
 C         1.520586         0.272163         0.041760
 C         2.404029        -0.110345        -1.223509
 C         3.358170        -0.451079         0.014995
 C         2.733742        -1.707783         0.524344
 O         1.291826        -1.120330         0.569691
 O         4.693897         0.105987         0.155437
 C         3.871803         1.570716         0.364218
 C         2.642266         0.686551         0.862372
 H        -0.246547         1.321269         0.791110
 H         0.642633         1.952143        -0.768719
 H        -0.485351         0.534409        -0.681417
 H         2.074760        -0.954815        -1.843454
 H         2.980729         0.521352        -1.919068
 H         2.663153        -2.624952        -0.111898
 H         2.993416        -1.901373         1.582200
 H         4.410884         1.959645         1.184136
 H         3.842154         2.135064        -0.460013
 H         2.561026         0.437712         1.872303
