19
Iteration:  4393charge 0 multiplicity 1
 C         0.189642         1.021025        -0.175702
 C         1.546050         0.364367        -0.041556
 C         2.377021        -0.121140        -1.164632
 C         3.372251        -0.418638         0.025690
 C         2.667921        -1.700523         0.575778
 O         1.329946        -1.087670         0.528802
 O         4.667720         0.193098         0.066767
 C         4.030343         1.397802         0.387704
 C         2.716917         0.653383         0.894351
 H        -0.334998         0.962606         0.785672
 H         0.284674         2.104289        -0.329659
 H        -0.413994         0.657030        -0.932335
 H         2.106468        -1.080390        -1.710974
 H         2.778396         0.692778        -1.727174
 H         2.693075        -2.690021         0.208662
 H         2.847184        -1.904261         1.614780
 H         4.525159         1.918344         1.200273
 H         3.765387         1.964858        -0.485262
 H         2.278116         0.842738         1.920193
