19
Iteration:   177charge 0 multiplicity 1
 C         0.131948         0.847316        -0.218554
 C         1.471703         0.239909        -0.048129
 C         2.477346         0.039763        -1.125972
 C         3.313543        -0.348820         0.045591
 C         2.714106        -1.660675         0.556346
 O         1.311411        -1.173068         0.563302
 O         4.664305         0.113391         0.008927
 C         4.140129         1.411577         0.537856
 C         2.622462         0.906585         0.825633
 H        -0.482487         0.557991         0.563379
 H        -0.095745         1.923327        -0.542659
 H        -0.184813         0.135834        -1.022200
 H         2.167298        -0.586565        -1.930868
 H         2.670807         0.962463        -1.592037
 H         2.736304        -2.341389        -0.225603
 H         2.986872        -2.068016         1.481220
 H         4.704031         1.566960         1.566859
 H         4.253943         2.305332        -0.107711
 H         2.466144         0.780371         1.876588
