19
Iteration:  2345
 C         0.149722         0.871354        -0.173244
 C         1.527489         0.252437        -0.097432
 C         2.528851         0.026003        -1.211419
 C         3.326815        -0.434056        -0.061329
 C         2.597407        -1.662563         0.570410
 O         1.319990        -1.057351         0.626383
 O         4.649561         0.085661         0.170073
 C         4.084772         1.415456         0.404838
 C         2.694817         0.847141         0.853300
 H        -0.240832         1.241023         0.757710
 H         0.058535         1.618108        -1.019813
 H        -0.416144        -0.039368        -0.504853
 H         2.284142        -0.753809        -2.007162
 H         2.718152         1.020880        -1.525035
 H         2.647312        -2.524106        -0.074673
 H         2.903335        -1.979757         1.625863
 H         4.528963         1.939615         1.336813
 H         4.045536         2.150107        -0.506884
 H         2.330826         0.595487         1.853399
