19
Iteration:  4206
 C         0.217997         1.023662        -0.071068
 C         1.522765         0.318255        -0.114710
 C         2.518677        -0.056466        -1.235085
 C         3.321766        -0.427660         0.035998
 C         2.683159        -1.669464         0.665556
 O         1.297247        -1.138407         0.514257
 O         4.669631         0.089559         0.105011
 C         3.923586         1.464211         0.366341
 C         2.661315         0.728680         0.812429
 H        -0.071355         0.982274         1.060330
 H         0.447021         2.077900        -0.456506
 H        -0.604544         0.613445        -0.687784
 H         2.114191        -0.899285        -1.839479
 H         2.951381         0.839480        -1.767620
 H         2.821349        -2.663876         0.077334
 H         3.112795        -1.800930         1.746971
 H         4.441133         1.932598         1.186831
 H         4.027191         1.998977        -0.547863
 H         2.385299         0.632510         1.898333
