19
Iteration:  2818charge 0 multiplicity 1
 C         0.057818         0.866675        -0.267627
 C         1.500817         0.268814         0.048918
 C         2.423299         0.028066        -1.177149
 C         3.364506        -0.434600         0.020435
 C         2.668428        -1.612756         0.529114
 O         1.316198        -1.025228         0.666934
 O         4.649771         0.072145         0.064621
 C         4.113084         1.377297         0.420636
 C         2.750012         0.830896         0.834938
 H        -0.784434         0.954550         0.467139
 H         0.219467         1.804465        -0.724896
 H        -0.274796         0.064016        -0.991832
 H         2.236689        -0.844435        -1.894429
 H         2.893609         0.872862        -1.591544
 H         2.668354        -2.552797        -0.067552
 H         2.858101        -2.040489         1.562084
 H         4.677738         1.901382         1.195639
 H         4.202709         1.983097        -0.390324
 H         2.599447         0.727457         1.922006
