19
Iteration:  3226
 C         0.106217         0.952250        -0.213481
 C         1.476655         0.330564        -0.013558
 C         2.416183        -0.124945        -1.233563
 C         3.330161        -0.384121        -0.021834
 C         2.683450        -1.692474         0.538323
 O         1.279560        -1.077487         0.650077
 O         4.734534         0.162599         0.085133
 C         4.109514         1.425261         0.496544
 C         2.684759         0.761963         0.820292
 H        -0.398491         1.101567         0.743818
 H         0.088094         1.883531        -0.812064
 H        -0.413163         0.389703        -0.929366
 H         2.215168        -0.983533        -1.897815
 H         2.838947         0.551298        -1.912482
 H         2.637580        -2.595799        -0.001638
 H         3.106575        -1.933582         1.506515
 H         4.420218         1.757538         1.567933
 H         4.232857         2.120541        -0.317205
 H         2.651558         0.638596         1.916023
