19
Iteration:  2911
 C         0.200317         0.999735        -0.184687
 C         1.431423         0.252085         0.001666
 C         2.494790        -0.041451        -1.099768
 C         3.395654        -0.428478         0.049884
 C         2.661757        -1.709376         0.529476
 O         1.322436        -1.124513         0.586675
 O         4.624415         0.104466         0.106467
 C         4.015179         1.464182         0.318045
 C         2.635380         0.774696         0.791145
 H        -0.261731         1.157027         0.802001
 H         0.541528         2.037768        -0.457008
 H        -0.548143         0.549645        -0.739288
 H         2.222921        -0.856606        -1.768372
 H         3.031991         0.792175        -1.604111
 H         2.708032        -2.602353        -0.091908
 H         2.977378        -1.985765         1.488649
 H         4.527523         1.889998         1.166948
 H         4.241420         2.163310        -0.520674
 H         2.677370         0.942742         1.861559
