19
Iteration:  2738charge 0 multiplicity 1
 C         0.243467         1.008546        -0.060743
 C         1.507985         0.284632        -0.058260
 C         2.384898        -0.184094        -1.311600
 C         3.395643        -0.483202         0.035966
 C         2.703008        -1.632915         0.633797
 O         1.308965        -1.076648         0.492025
 O         4.727230         0.146606         0.214485
 C         3.933224         1.456775         0.385835
 C         2.628343         0.774510         0.738135
 H         0.009940         1.211944         1.025086
 H         0.422213         2.094916        -0.472162
 H        -0.690968         0.740559        -0.485889
 H         2.124687        -1.112467        -1.820541
 H         2.966175         0.506787        -2.026472
 H         2.642281        -2.502455         0.006688
 H         2.984963        -1.731473         1.676810
 H         4.260738         1.868711         1.229521
 H         3.987175         2.019215        -0.508008
 H         2.444901         0.601918         1.808544
