19
Iteration:  1560charge 0 multiplicity 1
 C         0.205090         1.065556        -0.215831
 C         1.497271         0.202922        -0.091556
 C         2.527518        -0.061155        -1.121789
 C         3.376672        -0.399420         0.047163
 C         2.630861        -1.677158         0.634924
 O         1.301158        -1.184528         0.494964
 O         4.679303         0.179402         0.110937
 C         3.971219         1.488049         0.424949
 C         2.633701         0.687064         0.857671
 H        -0.250097         0.817155         0.782303
 H         0.490565         2.072364        -0.530644
 H        -0.497664         0.534325        -0.965222
 H         2.400396        -0.742109        -1.930873
 H         2.783794         0.874915        -1.654197
 H         2.749049        -2.547894        -0.105720
 H         2.720369        -2.063347         1.677950
 H         4.498972         2.003028         1.194647
 H         3.907404         2.218062        -0.522178
 H         2.688682         0.750565         2.030201
