19
Iteration:  2498
 C         0.032396         0.818190        -0.234159
 C         1.464130         0.360929        -0.087024
 C         2.448848         0.011164        -1.189376
 C         3.391281        -0.447875         0.031713
 C         2.631890        -1.638951         0.632875
 O         1.289119        -1.006917         0.566467
 O         4.729262         0.062550         0.067387
 C         4.071073         1.424946         0.488668
 C         2.770988         0.773091         0.856051
 H        -0.289825         1.077904         0.740160
 H         0.166207         1.639267        -1.009252
 H        -0.531161         0.016927        -0.664297
 H         2.160103        -0.651900        -2.064771
 H         2.942861         0.828054        -1.703612
 H         2.614964        -2.691955         0.208257
 H         2.875777        -1.865655         1.722377
 H         4.711607         1.929306         1.307387
 H         4.067768         2.002599        -0.511502
 H         2.549288         0.720061         1.946114
