19
Iteration:  1415charge 0 multiplicity 1
 C         0.143296         1.033171        -0.132589
 C         1.467400         0.232382        -0.176934
 C         2.535372        -0.049290        -1.221257
 C         3.334015        -0.441069         0.048817
 C         2.680645        -1.751915         0.625563
 O         1.326227        -1.134286         0.537937
 O         4.704842         0.141735         0.162520
 C         3.944229         1.525834         0.450423
 C         2.700399         0.736185         0.790495
 H        -0.389769         0.926153         0.802803
 H         0.661467         2.012471        -0.317803
 H        -0.510529         0.783843        -0.972092
 H         2.257508        -0.785110        -1.968926
 H         2.892605         0.819693        -1.723220
 H         2.776273        -2.680501         0.000697
 H         2.859255        -2.000653         1.662205
 H         4.225136         2.132881         1.369749
 H         3.979696         2.055576        -0.498774
 H         2.377116         0.698084         1.920154
