19
Iteration:  1424charge 0 multiplicity 1
 C         0.225865         1.018485        -0.133227
 C         1.482003         0.202688        -0.130908
 C         2.508871        -0.116857        -1.246203
 C         3.390114        -0.386097         0.110455
 C         2.711331        -1.716791         0.575978
 O         1.245373        -1.161883         0.547211
 O         4.688126         0.189814         0.167217
 C         3.988193         1.467310         0.451277
 C         2.606210         0.770787         0.769232
 H        -0.403720         1.056927         0.788536
 H         0.531632         2.155465        -0.318871
 H        -0.401605         0.845752        -1.060349
 H         2.312468        -0.816966        -2.162271
 H         2.655936         0.782726        -1.788617
 H         2.676384        -2.601326        -0.017307
 H         3.022705        -2.053173         1.566140
 H         4.507882         1.991304         1.320858
 H         3.949456         2.151065        -0.320361
 H         2.548605         0.671007         1.901260
