19
Iteration:  3415
 C         0.009317         0.813395        -0.165033
 C         1.450271         0.310678        -0.097448
 C         2.423611         0.026404        -1.318850
 C         3.330635        -0.362588        -0.030442
 C         2.682813        -1.580512         0.565358
 O         1.291519        -1.058292         0.655744
 O         4.746077        -0.012732         0.157056
 C         4.149510         1.424394         0.531887
 C         2.753184         0.781728         0.786893
 H        -0.549068         0.696964         0.866442
 H         0.026035         1.879250        -0.495278
 H        -0.506695         0.407199        -1.069881
 H         2.093557        -0.791453        -2.001629
 H         2.653740         0.987100        -1.915754
 H         2.654788        -2.587682         0.140491
 H         3.214758        -1.643693         1.525189
 H         4.769509         1.805182         1.379556
 H         4.283200         2.092566        -0.402906
 H         2.457007         0.834987         1.801751
