19
Iteration:  1125
 C         0.163228         0.988192        -0.099393
 C         1.486454         0.248112        -0.111960
 C         2.554852        -0.055213        -1.233132
 C         3.363889        -0.477207         0.126772
 C         2.712555        -1.660539         0.556376
 O         1.291336        -1.125154         0.464517
 O         4.703096         0.222399         0.190963
 C         3.960810         1.470873         0.384795
 C         2.605025         0.664183         0.830218
 H        -0.210095         1.133810         0.948507
 H         0.203451         1.968950        -0.541500
 H        -0.484914         0.456408        -0.807234
 H         2.211559        -1.004658        -1.698177
 H         2.981563         0.820855        -1.803774
 H         2.780747        -2.513468        -0.012016
 H         2.898237        -1.955927         1.596224
 H         4.507403         1.994617         1.072469
 H         3.939759         2.203740        -0.448309
 H         2.388587         0.706571         1.858456
