19
Iteration:  3665charge 0 multiplicity 1
 C         0.184303         0.943373        -0.144073
 C         1.447830         0.269199        -0.054654
 C         2.478194        -0.028293        -1.123403
 C         3.394968        -0.414203         0.020561
 C         2.621381        -1.624235         0.622024
 O         1.297655        -1.148002         0.508140
 O         4.664998         0.127582         0.072482
 C         4.084130         1.394867         0.443093
 C         2.646414         0.762598         0.762279
 H        -0.046439         1.379720         0.833725
 H         0.414507         1.841790        -0.673734
 H        -0.663365         0.431521        -0.569858
 H         2.228480        -0.749784        -1.844590
 H         2.803079         0.871431        -1.565266
 H         2.728702        -2.577103         0.020248
 H         2.857897        -1.842302         1.683987
 H         4.630634         1.876374         1.274113
 H         4.162225         2.171903        -0.466397
 H         2.481020         0.786709         1.800929
