19
Iteration:  2886
 C         0.207778         1.057783        -0.110921
 C         1.464406         0.308917        -0.096090
 C         2.409429        -0.066173        -1.252257
 C         3.409262        -0.430743         0.109710
 C         2.664173        -1.641830         0.700104
 O         1.267951        -1.178541         0.441816
 O         4.722956         0.167833         0.105463
 C         3.957735         1.409109         0.400026
 C         2.725352         0.669218         0.813668
 H        -0.094424         1.327878         0.875724
 H         0.348642         2.076328        -0.520907
 H        -0.646420         0.400278        -0.368871
 H         2.132446        -0.864911        -1.940682
 H         2.921139         0.817726        -1.796021
 H         2.850335        -2.632998         0.169456
 H         2.984959        -1.903957         1.747969
 H         4.624620         2.150988         0.968720
 H         3.691861         1.840406        -0.460502
 H         2.562499         0.788891         1.889811
