19
Iteration:  2915charge 0 multiplicity 1
 C         0.205912         0.982699        -0.191815
 C         1.461902         0.252189         0.022551
 C         2.464349        -0.058750        -1.121358
 C         3.369809        -0.407742         0.073994
 C         2.680040        -1.671923         0.506036
 O         1.308440        -1.095215         0.600708
 O         4.649287         0.091413         0.097238
 C         3.998602         1.421721         0.372088
 C         2.677217         0.770027         0.768840
 H        -0.269474         1.018292         0.858697
 H         0.491054         1.960383        -0.538465
 H        -0.541746         0.500886        -0.946143
 H         2.168912        -0.964458        -1.718659
 H         2.887417         0.777709        -1.604373
 H         2.577157        -2.453563        -0.271602
 H         3.076293        -1.983972         1.515183
 H         4.543680         1.957792         1.153217
 H         4.182028         2.263916        -0.543046
 H         2.552330         1.029228         1.863895
