19
Iteration:  4723
 C         0.033122         0.893738        -0.141036
 C         1.482459         0.354437        -0.029482
 C         2.446561         0.005798        -1.278478
 C         3.295621        -0.414264        -0.038901
 C         2.678680        -1.660091         0.564189
 O         1.324076        -1.014584         0.602201
 O         4.706734         0.105651         0.136088
 C         4.083188         1.361461         0.454242
 C         2.798381         0.719380         0.817111
 H        -0.482101         0.682250         0.738264
 H         0.198092         1.904767        -0.394728
 H        -0.623031         0.412990        -0.913467
 H         2.094733        -0.756258        -1.963666
 H         3.083739         0.828939        -1.677393
 H         2.666427        -2.633536         0.018878
 H         2.856475        -1.737350         1.640518
 H         4.495582         1.789658         1.300059
 H         4.111459         1.903951        -0.478648
 H         2.580671         0.535728         1.843868
