19
Iteration:    79charge 0 multiplicity 1
 C         0.168092         0.925180        -0.112287
 C         1.517411         0.320669        -0.066825
 C         2.528952        -0.000505        -1.160507
 C         3.325842        -0.388686         0.046214
 C         2.636896        -1.666695         0.623234
 O         1.353943        -1.213019         0.454340
 O         4.685911         0.187161         0.078834
 C         3.991033         1.428195         0.426440
 C         2.604353         0.741857         0.841698
 H        -0.208922         0.876639         0.840032
 H         0.262841         2.001106        -0.393758
 H        -0.548436         0.475335        -0.779868
 H         2.192956        -0.762255        -1.913963
 H         2.965554         0.827008        -1.723198
 H         2.863944        -2.520919        -0.056133
 H         2.968086        -1.882591         1.652290
 H         4.544309         1.904960         1.311765
 H         3.907958         2.085003        -0.380499
 H         2.431583         0.596507         1.830031
