19
Iteration:  3219charge 0 multiplicity 1
 C         0.163387         0.967487        -0.167912
 C         1.454829         0.270431        -0.076728
 C         2.398490        -0.184808        -1.210189
 C         3.353536        -0.420764        -0.003461
 C         2.627491        -1.675902         0.537352
 O         1.323259        -1.089940         0.600356
 O         4.678451         0.179638         0.059620
 C         4.108313         1.464993         0.553928
 C         2.738644         0.768669         0.802751
 H        -0.353793         1.233144         0.770587
 H         0.379046         1.875192        -0.711592
 H        -0.520200         0.370169        -0.855087
 H         1.945030        -1.077532        -1.718169
 H         2.921889         0.664936        -1.804513
 H         2.704200        -2.604965        -0.113235
 H         2.915799        -1.763673         1.592141
 H         4.566024         1.923378         1.450899
 H         4.192418         2.320180        -0.161618
 H         2.375655         0.850380         1.857585
