19
Iteration:  4073charge 0 multiplicity 1
 C         0.251341         1.065514        -0.045313
 C         1.459118         0.275026        -0.110550
 C         2.606319        -0.106784        -1.253970
 C         3.302335        -0.411122         0.023352
 C         2.629018        -1.617386         0.609452
 O         1.298258        -1.070282         0.557255
 O         4.702618         0.147131         0.130229
 C         3.940959         1.380419         0.341932
 C         2.606577         0.683795         0.832039
 H        -0.114361         0.898977         1.007184
 H         0.497364         2.122003        -0.279589
 H        -0.609600         0.721776        -0.703165
 H         2.339836        -1.046165        -1.872932
 H         3.178756         0.392763        -2.021084
 H         2.765220        -2.563691         0.171856
 H         2.829637        -1.868309         1.619811
 H         4.485400         1.898210         1.075441
 H         3.820919         1.945355        -0.563776
 H         2.530287         0.548640         1.898922
