19
Iteration:  3411
 C        -0.015331         0.806251        -0.178338
 C         1.470129         0.295912        -0.089987
 C         2.438603         0.043668        -1.311453
 C         3.375377        -0.392026        -0.039186
 C         2.668869        -1.567810         0.560180
 O         1.261881        -1.070044         0.669076
 O         4.717376        -0.012491         0.149619
 C         4.142884         1.432296         0.535056
 C         2.790047         0.810706         0.756294
 H        -0.414100         0.796839         0.845388
 H        -0.117226         1.913752        -0.485640
 H        -0.505666         0.417662        -1.080029
 H         2.184905        -0.792927        -1.926861
 H         2.612065         1.017797        -1.745659
 H         2.591334        -2.609070         0.116705
 H         3.319847        -1.730266         1.533940
 H         4.679337         1.956875         1.391942
 H         4.278144         1.971354        -0.319730
 H         2.545344         0.736457         1.878592
