19
Iteration:   458charge 0 multiplicity 1
 C         0.122126         0.801566        -0.227714
 C         1.476595         0.268468        -0.058005
 C         2.461352         0.061562        -1.115739
 C         3.416735        -0.413310         0.034680
 C         2.752293        -1.646718         0.491284
 O         1.278650        -1.062103         0.533854
 O         4.647989         0.138190         0.120766
 C         4.087226         1.427862         0.537589
 C         2.636677         0.758550         0.832639
 H        -0.227661         1.118764         0.672057
 H         0.012371         1.560479        -1.037310
 H        -0.405481        -0.082373        -0.600377
 H         2.226903        -0.745946        -1.955698
 H         2.729031         0.895702        -1.747207
 H         2.764238        -2.434337        -0.242394
 H         2.913672        -1.922081         1.533618
 H         4.451640         1.733673         1.466801
 H         4.261006         2.201760        -0.270725
 H         2.301296         0.872821         1.870279
