19
Iteration:  1949charge 0 multiplicity 1
 C         0.120193         0.796776        -0.231856
 C         1.486334         0.337921        -0.018734
 C         2.383095        -0.015855        -1.209194
 C         3.414406        -0.398486         0.071453
 C         2.599988        -1.583750         0.568956
 O         1.323944        -1.086607         0.469697
 O         4.695193         0.101972         0.147560
 C         4.137871         1.430240         0.483727
 C         2.680700         0.789497         0.850824
 H        -0.552079         0.789499         0.669960
 H         0.230319         1.894429        -0.531664
 H        -0.338294         0.232480        -1.040198
 H         1.794938        -0.774702        -1.833854
 H         2.770822         0.743287        -1.791818
 H         2.596524        -2.589148         0.081180
 H         2.981558        -1.847765         1.578990
 H         4.792797         1.733154         1.394938
 H         4.103858         2.173945        -0.320884
 H         2.732403         0.635041         1.831892
