19
Iteration:  3571
 C         0.002517         0.844136        -0.211060
 C         1.504808         0.397677         0.011869
 C         2.422114         0.023110        -1.203811
 C         3.392220        -0.451185         0.096197
 C         2.698649        -1.631148         0.602602
 O         1.317874        -1.021241         0.537828
 O         4.668884         0.020588         0.087523
 C         4.100682         1.407832         0.434100
 C         2.773037         0.792463         0.806046
 H        -0.687682         0.864325         0.643481
 H         0.016614         1.919161        -0.554539
 H        -0.351015         0.201070        -1.057461
 H         2.097752        -0.957825        -1.729739
 H         2.834254         0.822936        -1.873804
 H         2.815448        -2.456689        -0.085670
 H         2.872301        -1.966170         1.602628
 H         4.599562         1.897535         1.258516
 H         4.129291         1.974766        -0.400281
 H         2.448966         0.629098         1.859482
