19
Iteration:  2977charge 0 multiplicity 1
 C         0.130503         0.862841        -0.231584
 C         1.472898         0.234832        -0.068282
 C         2.483609         0.065261        -1.203242
 C         3.315846        -0.344850         0.082526
 C         2.641897        -1.562265         0.677439
 O         1.329064        -1.104478         0.563812
 O         4.663344         0.035117        -0.023930
 C         4.172351         1.362190         0.452982
 C         2.640664         0.816156         0.851343
 H        -0.373246         0.896956         0.775523
 H         0.228815         1.939247        -0.335170
 H        -0.589595         0.337301        -0.786896
 H         2.218334        -0.812109        -1.862250
 H         2.847033         0.890083        -1.782923
 H         2.617211        -2.514541         0.134578
 H         2.964609        -1.826880         1.663177
 H         4.734393         1.594843         1.309562
 H         4.153930         2.056286        -0.291334
 H         2.316397         0.846591         1.894264
