19
Iteration:  2025charge 0 multiplicity 1
 C         0.169365         1.064615        -0.185738
 C         1.459348         0.281632        -0.075391
 C         2.424739        -0.086623        -1.161876
 C         3.359900        -0.425607         0.015277
 C         2.661150        -1.694521         0.567865
 O         1.328508        -1.155115         0.479662
 O         4.765455         0.203492         0.162077
 C         3.989605         1.465511         0.442901
 C         2.651290         0.654342         0.918537
 H        -0.336693         1.391443         0.774274
 H         0.478228         1.942004        -0.830756
 H        -0.547066         0.398941        -0.735446
 H         2.095221        -0.989371        -1.786465
 H         2.903201         0.559430        -1.812046
 H         2.939515        -2.464212        -0.195206
 H         2.809123        -2.006681         1.613982
 H         4.361745         2.176129         1.063474
 H         3.929079         1.948242        -0.467190
 H         2.570027         0.666080         1.949043
