19
Iteration:  2546charge 0 multiplicity 1
 C         0.047105         1.030278        -0.284979
 C         1.493014         0.235985        -0.092457
 C         2.469751        -0.055064        -1.191312
 C         3.305959        -0.432996         0.007300
 C         2.708082        -1.706178         0.658151
 O         1.382490        -1.035357         0.658410
 O         4.673313         0.111873         0.037593
 C         4.105925         1.401674         0.494706
 C         2.623031         0.781413         0.818489
 H        -0.360015         1.227394         0.725335
 H         0.186022         1.780721        -0.998668
 H        -0.671544         0.329647        -0.763983
 H         2.212983        -0.831828        -1.848426
 H         2.833796         0.773814        -1.830595
 H         2.856490        -2.520212        -0.005243
 H         3.129570        -2.043246         1.561286
 H         4.626626         1.580681         1.534764
 H         4.227506         2.264923        -0.178549
 H         2.320160         0.663937         1.847166
