19
Iteration:  4102
 C         0.184479         1.020171        -0.131153
 C         1.439283         0.304682        -0.051608
 C         2.406824        -0.046700        -1.217046
 C         3.311137        -0.466439         0.072353
 C         2.687087        -1.725711         0.645607
 O         1.286890        -1.136800         0.499369
 O         4.706561         0.154474         0.131780
 C         4.085389         1.453436         0.371332
 C         2.708000         0.757460         0.765678
 H        -0.253037         1.122708         0.836406
 H         0.430245         2.033106        -0.440760
 H        -0.490274         0.468205        -0.789059
 H         1.951855        -0.868284        -1.804998
 H         2.959297         0.582419        -1.931429
 H         2.814931        -2.764547         0.069468
 H         2.721684        -1.811454         1.814723
 H         4.563748         1.810979         1.359450
 H         4.222819         2.241431        -0.436944
 H         2.603893         0.847325         1.856323
