19
Iteration:  2927
 C         0.188429         0.934620        -0.198227
 C         1.519066         0.284327        -0.051643
 C         2.384696        -0.105784        -1.200901
 C         3.332767        -0.393411         0.075574
 C         2.668009        -1.639537         0.515294
 O         1.304732        -1.028000         0.652009
 O         4.720173         0.105902         0.083001
 C         4.060746         1.407818         0.427881
 C         2.703572         0.794530         0.858520
 H        -0.530384         0.965849         0.674197
 H         0.255898         1.976878        -0.489052
 H        -0.337912         0.305864        -1.042257
 H         2.092624        -0.927378        -1.888563
 H         2.540284         0.735455        -1.878683
 H         2.747373        -2.432525        -0.295309
 H         2.958555        -2.219613         1.459430
 H         4.545493         1.857579         1.333927
 H         3.871788         2.019625        -0.600212
 H         2.464108         0.594969         1.952608
