19
Iteration:  1248charge 0 multiplicity 1
 C         0.121053         0.962729        -0.166971
 C         1.490326         0.282850        -0.113008
 C         2.434249        -0.071179        -1.218990
 C         3.378051        -0.394505         0.033164
 C         2.656857        -1.647639         0.566838
 O         1.331636        -1.101001         0.536848
 O         4.713638         0.170897         0.224085
 C         3.991463         1.445590         0.463097
 C         2.718866         0.705204         0.767626
 H        -0.526144         0.655751         0.724437
 H         0.179790         2.070106        -0.290491
 H        -0.295383         0.498752        -1.124423
 H         2.130849        -0.981802        -1.799108
 H         2.881392         0.778525        -1.834427
 H         2.633415        -2.532442        -0.094213
 H         3.003209        -1.825656         1.635302
 H         4.489109         1.881247         1.344394
 H         3.897811         2.055153        -0.481874
 H         2.681925         0.398400         1.863964
