19
Iteration:  3541charge 0 multiplicity 1
 C         0.109096         0.819730        -0.132846
 C         1.539891         0.312620        -0.068752
 C         2.509474         0.026691        -1.232461
 C         3.360455        -0.436970         0.057761
 C         2.559873        -1.579412         0.643950
 O         1.248588        -1.050900         0.553327
 O         4.674347         0.114012         0.044972
 C         4.110283         1.358537         0.474166
 C         2.765864         0.761565         0.775179
 H        -0.446039         0.978527         0.789300
 H         0.109569         1.816004        -0.693024
 H        -0.467737         0.009314        -0.615255
 H         2.383254        -0.787991        -2.013251
 H         2.840388         0.948287        -1.765827
 H         2.700054        -2.471793         0.035894
 H         2.765743        -1.815857         1.712664
 H         4.584235         1.861572         1.408223
 H         4.089849         2.222496        -0.448013
 H         2.503482         0.586889         1.907070
