19
Iteration:  4751charge 0 multiplicity 1
 C         0.091845         0.858575        -0.150056
 C         1.475010         0.262578        -0.047385
 C         2.388017        -0.005167        -1.159766
 C         3.315744        -0.353892         0.080349
 C         2.698879        -1.686835         0.523207
 O         1.243197        -1.031545         0.551148
 O         4.713520         0.080653         0.040730
 C         4.169849         1.401243         0.500339
 C         2.761824         0.817294         0.787940
 H        -0.465600         0.507955         0.836186
 H         0.273630         1.989338        -0.371401
 H        -0.527585         0.521742        -0.975020
 H         2.086252        -0.879240        -1.805357
 H         2.764397         0.750256        -1.896989
 H         2.726523        -2.608313        -0.072413
 H         2.715761        -1.885591         1.603664
 H         4.739227         1.849995         1.453395
 H         4.419844         2.043756        -0.434505
 H         2.434816         0.909995         1.872055
