19
Iteration:  1230charge 0 multiplicity 1
 C         0.063871         0.882753        -0.282995
 C         1.454525         0.280125        -0.027101
 C         2.471575        -0.073819        -1.205011
 C         3.375176        -0.408880         0.047426
 C         2.814234        -1.687840         0.536945
 O         1.248147        -1.037088         0.556840
 O         4.718004         0.145020         0.111896
 C         4.111073         1.469587         0.507746
 C         2.651633         0.720790         0.872068
 H        -0.480376         0.809893         0.592869
 H         0.170727         1.959524        -0.346917
 H        -0.632246         0.542792        -0.975596
 H         2.232272        -0.830387        -1.940603
 H         2.775522         0.754895        -1.717529
 H         2.598558        -2.521015        -0.191711
 H         2.793680        -1.927882         1.558976
 H         4.564678         1.852805         1.482060
 H         4.155169         2.047340        -0.391269
 H         2.351922         0.901866         1.938759
