19
Iteration:  2735
 C         0.227571         1.021157        -0.070300
 C         1.487263         0.293882        -0.053264
 C         2.363821        -0.167255        -1.289911
 C         3.411288        -0.481389         0.028343
 C         2.717194        -1.644488         0.638431
 O         1.302730        -1.070591         0.480937
 O         4.708871         0.146614         0.220120
 C         3.931433         1.463730         0.370055
 C         2.675869         0.747197         0.755766
 H         0.032546         1.195199         0.983250
 H         0.331459         2.058453        -0.568484
 H        -0.755794         0.739175        -0.494532
 H         2.248783        -1.107452        -1.857529
 H         3.005552         0.408449        -1.997391
 H         2.675061        -2.567953         0.048507
 H         2.991682        -1.769871         1.660240
 H         4.315809         1.918626         1.345739
 H         4.027325         2.046563        -0.630954
 H         2.457131         0.577922         1.840753
