19
Iteration:  2255charge 0 multiplicity 1
 C         0.077083         0.956558        -0.244870
 C         1.477682         0.276355        -0.088899
 C         2.536800        -0.076761        -1.172019
 C         3.308151        -0.396236         0.053525
 C         2.655764        -1.650872         0.545464
 O         1.311540        -1.055128         0.648147
 O         4.698424         0.125942         0.098657
 C         4.045607         1.409983         0.408034
 C         2.705812         0.697270         0.877208
 H        -0.607107         0.735450         0.568181
 H         0.166786         1.991857        -0.385160
 H        -0.398609         0.501129        -1.139513
 H         2.185701        -0.812553        -1.863415
 H         2.933931         0.903536        -1.639228
 H         2.849049        -2.404168        -0.189109
 H         2.975175        -1.948324         1.540958
 H         4.566481         1.852113         1.208363
 H         4.080096         2.217810        -0.427625
 H         2.693860         0.742009         1.938076
