19
Iteration:  1947charge 0 multiplicity 1
 C         0.134754         0.784826        -0.224235
 C         1.486739         0.336311        -0.055428
 C         2.365476        -0.010999        -1.183831
 C         3.424593        -0.395872         0.057719
 C         2.605104        -1.578288         0.565748
 O         1.314645        -1.088739         0.475463
 O         4.691492         0.105696         0.154956
 C         4.140976         1.423633         0.481825
 C         2.689532         0.797250         0.857173
 H        -0.552600         0.794002         0.665977
 H         0.137659         1.945024        -0.558331
 H        -0.316356         0.266661        -1.097711
 H         1.817292        -0.819892        -1.753978
 H         2.766732         0.814281        -1.790502
 H         2.656077        -2.594019         0.063261
 H         2.927908        -1.861764         1.572815
 H         4.745859         1.631739         1.306517
 H         4.093930         2.119995        -0.315463
 H         2.749689         0.662770         1.930151
