19
Iteration:  2014
 C         0.236321         1.032068        -0.232607
 C         1.526630         0.285976        -0.004568
 C         2.420316        -0.152698        -1.172344
 C         3.369126        -0.449147         0.100810
 C         2.719360        -1.692344         0.515906
 O         1.260617        -1.142392         0.457894
 O         4.671121         0.236301         0.190184
 C         4.011994         1.523859         0.423236
 C         2.691262         0.654316         0.848286
 H         0.032640         1.376137         0.840516
 H         0.274882         2.011631        -0.790477
 H        -0.676005         0.531456        -0.577555
 H         1.827401        -0.947186        -1.716936
 H         2.693866         0.651156        -1.763074
 H         2.673321        -2.595305        -0.130503
 H         3.014815        -2.006084         1.530337
 H         4.469198         2.012416         1.203857
 H         3.914710         2.077917        -0.450921
 H         2.459027         0.470131         1.838509
