19
Iteration:  1410charge 0 multiplicity 1
 C         0.144331         1.026067        -0.171018
 C         1.465399         0.247337        -0.127916
 C         2.517749        -0.022165        -1.230586
 C         3.347303        -0.474759         0.044542
 C         2.653818        -1.734577         0.628433
 O         1.363236        -1.120923         0.520905
 O         4.697092         0.139765         0.168601
 C         3.928335         1.523085         0.442927
 C         2.696249         0.695063         0.792712
 H        -0.304102         0.887903         0.854434
 H         0.459431         2.099471        -0.233456
 H        -0.627623         0.724658        -0.927134
 H         2.250016        -0.965057        -1.840946
 H         3.125427         0.892252        -1.537186
 H         2.795176        -2.558072        -0.059184
 H         2.847349        -1.828949         1.725789
 H         4.319199         2.095922         1.260184
 H         4.017953         2.071421        -0.515584
 H         2.403161         0.662877         1.786343
