19
Iteration:  2221
 C         0.067118         0.808346        -0.224706
 C         1.466754         0.341366         0.016045
 C         2.447564        -0.011321        -1.227876
 C         3.308001        -0.396201         0.088201
 C         2.616990        -1.587649         0.589150
 O         1.346415        -1.054864         0.508925
 O         4.739944         0.108875         0.144928
 C         4.142209         1.386503         0.415076
 C         2.709433         0.748988         0.817171
 H        -0.435420         0.787934         0.754248
 H         0.013429         1.777235        -0.603181
 H        -0.391733         0.177100        -0.985036
 H         1.938060        -0.728769        -1.879542
 H         2.740937         0.940525        -1.758564
 H         2.684973        -2.522336         0.052663
 H         2.854239        -1.804592         1.615321
 H         4.615957         1.591349         1.295783
 H         4.154246         2.212225        -0.422882
 H         2.639894         0.736298         1.890665
