19
Iteration:  1920
 C         0.026990         0.869229        -0.210128
 C         1.444866         0.300234        -0.052607
 C         2.568544        -0.003370        -1.230771
 C         3.388576        -0.412335         0.082573
 C         2.664536        -1.645360         0.552721
 O         1.327725        -1.053593         0.575824
 O         4.677011         0.064969         0.137428
 C         4.088939         1.460960         0.453066
 C         2.631596         0.759118         0.814507
 H        -0.668863         0.851930         0.602407
 H         0.108964         1.891292        -0.391169
 H        -0.426660         0.532333        -1.149543
 H         2.212015        -0.701018        -1.989925
 H         3.136695         0.855000        -1.583867
 H         2.549611        -2.521435        -0.062776
 H         3.118468        -1.957888         1.528455
 H         4.702282         1.778610         1.328887
 H         3.988575         2.092714        -0.455149
 H         2.722093         0.564078         1.948364
