19
Iteration:  3105charge 0 multiplicity 1
 C         0.113816         0.808336        -0.218535
 C         1.519072         0.317232        -0.075387
 C         2.450656         0.008870        -1.210072
 C         3.377163        -0.453156        -0.072615
 C         2.612133        -1.605409         0.660861
 O         1.277936        -0.977409         0.647033
 O         4.746865         0.080825         0.039084
 C         4.075628         1.357647         0.498939
 C         2.699040         0.759527         0.832607
 H        -0.387239         0.659682         0.691605
 H        -0.030528         1.864490        -0.541216
 H        -0.395729         0.342827        -0.996521
 H         2.031571        -0.597923        -2.019333
 H         2.742017         0.977097        -1.539545
 H         2.415041        -2.412956        -0.009455
 H         2.944136        -1.880347         1.639875
 H         4.709776         1.840400         1.340042
 H         4.263145         2.115027        -0.301477
 H         2.433764         0.630092         1.865740
