19
Iteration:  2643
 C         0.123264         0.875358        -0.213587
 C         1.485783         0.258490        -0.048066
 C         2.340890        -0.107868        -1.228112
 C         3.380771        -0.399570        -0.067894
 C         2.689614        -1.601441         0.649259
 O         1.302157        -0.986583         0.608821
 O         4.714217         0.102527         0.120094
 C         4.105740         1.442447         0.505018
 C         2.690638         0.744709         0.748206
 H        -0.471882         0.830663         0.732165
 H         0.193601         1.895296        -0.545377
 H        -0.453399         0.361772        -0.987727
 H         2.106323        -0.783579        -2.028283
 H         2.823300         0.804707        -1.608479
 H         2.582110        -2.492006         0.000648
 H         2.890938        -1.855687         1.740152
 H         4.603076         1.712578         1.549004
 H         4.235486         2.110878        -0.364268
 H         2.717258         0.527570         1.808255
