19
Iteration:  2141charge 0 multiplicity 1
 C         0.146043         1.052261        -0.221900
 C         1.436559         0.248786        -0.060337
 C         2.530382        -0.067337        -1.181154
 C         3.369210        -0.443815         0.082535
 C         2.699742        -1.675237         0.602584
 O         1.327894        -1.128289         0.527374
 O         4.682652         0.204094         0.079194
 C         3.934765         1.401351         0.454738
 C         2.708217         0.679235         0.894875
 H        -0.357840         1.303173         0.681214
 H         0.455039         1.982565        -0.769852
 H        -0.542094         0.472212        -0.763914
 H         2.232959        -0.854884        -1.907175
 H         2.755339         0.811298        -1.709035
 H         2.797164        -2.408919        -0.213066
 H         2.762187        -2.090870         1.588565
 H         4.567957         2.137313         1.091840
 H         3.912926         1.986932        -0.492282
 H         2.637776         0.611683         2.032658
