19
Iteration:  3915charge 0 multiplicity 1
 C         0.201300         1.115976        -0.157699
 C         1.482958         0.236043        -0.008545
 C         2.512295        -0.139332        -1.248130
 C         3.348676        -0.418562         0.073362
 C         2.644229        -1.706796         0.580817
 O         1.223103        -1.099079         0.528717
 O         4.688492         0.230302         0.131461
 C         4.069944         1.458616         0.322903
 C         2.692000         0.609720         0.884161
 H        -0.437650         1.130640         0.721052
 H         0.311007         2.150999        -0.306080
 H        -0.371483         0.549952        -0.815791
 H         2.338834        -0.969342        -1.845751
 H         2.703124         0.729144        -1.834075
 H         2.591045        -2.651912         0.157054
 H         2.822268        -1.867981         1.641724
 H         4.587678         2.062840         1.127996
 H         3.917946         2.119058        -0.569867
 H         2.822156         0.289055         1.894936
