19
Iteration:  4233charge 0 multiplicity 1
 C         0.190459         1.065974        -0.073265
 C         1.492929         0.241872        -0.069970
 C         2.454788        -0.124115        -1.186549
 C         3.347969        -0.436303         0.138700
 C         2.612739        -1.740849         0.588802
 O         1.292921        -1.134353         0.487506
 O         4.710900         0.210036         0.114078
 C         3.969547         1.478937         0.327137
 C         2.733761         0.734112         0.804000
 H        -0.230495         0.886321         0.891419
 H         0.570259         2.056388        -0.328586
 H        -0.589508         0.886315        -0.843625
 H         2.212528        -0.944978        -1.843437
 H         2.868761         0.729632        -1.682011
 H         2.701519        -2.641049         0.043845
 H         2.991158        -1.993598         1.546737
 H         4.451415         2.030144         1.171301
 H         4.097936         1.925371        -0.687288
 H         2.525401         0.727336         1.855977
