19
Iteration:    55
 C         0.077531         0.840328        -0.215776
 C         1.499989         0.298278         0.024924
 C         2.366399        -0.002037        -1.242410
 C         3.360327        -0.409411         0.050110
 C         2.743255        -1.697672         0.570140
 O         1.264135        -1.015281         0.486296
 O         4.742688         0.171727         0.120434
 C         4.038528         1.498376         0.497228
 C         2.784211         0.647633         0.873921
 H        -0.678176         0.543597         0.522634
 H         0.078088         1.910855        -0.504937
 H        -0.318330         0.366864        -1.142918
 H         1.904818        -0.739517        -1.804634
 H         2.764035         0.677248        -1.942443
 H         2.815256        -2.584996         0.044804
 H         2.980855        -1.851335         1.607102
 H         4.635738         1.927447         1.331667
 H         3.849782         2.218554        -0.405329
 H         2.708385         0.437080         1.987757
