19
Iteration:  4459
 C         0.057609         0.866354        -0.157380
 C         1.470852         0.382108        -0.031004
 C         2.408575        -0.036724        -1.205152
 C         3.323057        -0.429082         0.073693
 C         2.661943        -1.575427         0.510077
 O         1.340920        -1.025399         0.570765
 O         4.664173         0.042689         0.113217
 C         4.114759         1.429117         0.432587
 C         2.756348         0.725344         0.800053
 H        -0.397881         1.104024         0.777123
 H         0.052549         1.802644        -0.710385
 H        -0.419270         0.106842        -0.683500
 H         2.231177        -1.027207        -1.735411
 H         2.798456         0.725284        -1.815746
 H         2.849282        -2.472223        -0.092288
 H         3.027557        -1.896551         1.478939
 H         4.659285         1.632935         1.356941
 H         4.249950         2.180596        -0.406499
 H         2.635502         0.739611         1.910098
