19
Iteration:   740
 C         0.094461         0.846185        -0.145864
 C         1.523596         0.301798        -0.080244
 C         2.486889         0.022338        -1.251359
 C         3.358741        -0.366699         0.072453
 C         2.654062        -1.614203         0.603658
 O         1.343204        -1.105502         0.466008
 O         4.709080         0.106177         0.179689
 C         4.009790         1.436826         0.503219
 C         2.659359         0.733236         0.791853
 H        -0.589717         0.448388         0.603616
 H        -0.063212         1.992949        -0.199452
 H        -0.239194         0.341655        -1.120235
 H         2.042475        -0.578613        -2.081404
 H         2.835607         0.914090        -1.846399
 H         2.895022        -2.554615         0.032774
 H         3.210240        -1.770756         1.602015
 H         4.422901         1.909302         1.352328
 H         3.999193         2.026109        -0.369952
 H         2.498631         0.457492         1.869531
