19
Iteration:  3728charge 0 multiplicity 1
 C         0.098597         0.878318        -0.207163
 C         1.489789         0.337560        -0.070083
 C         2.485537        -0.010000        -1.191706
 C         3.392118        -0.436552         0.089458
 C         2.594415        -1.624128         0.590979
 O         1.254878        -1.124544         0.612940
 O         4.703901         0.086212         0.037794
 C         4.143877         1.447424         0.447059
 C         2.715684         0.787750         0.823685
 H        -0.569894         0.913589         0.722756
 H         0.224144         1.972687        -0.433495
 H        -0.394031         0.257345        -0.995248
 H         2.085874        -0.688108        -1.957282
 H         2.913267         0.889443        -1.647415
 H         2.658432        -2.285994        -0.221004
 H         2.668091        -2.192827         1.525541
 H         4.623661         1.896530         1.326747
 H         4.077579         2.127476        -0.355788
 H         2.622818         0.666122         1.934951
