19
Iteration:   591
 C         0.112042         0.831331        -0.215024
 C         1.490491         0.258024        -0.033523
 C         2.500660         0.046518        -1.255675
 C         3.388957        -0.405758         0.064853
 C         2.679679        -1.646624         0.529695
 O         1.378077        -1.103297         0.542423
 O         4.668910         0.098924         0.205208
 C         3.969903         1.433333         0.488479
 C         2.688493         0.789831         0.785822
 H        -0.387156         0.896762         0.739171
 H         0.203842         1.858991        -0.570188
 H        -0.489848         0.280034        -0.922698
 H         2.164183        -0.599525        -2.053811
 H         2.647054         1.122473        -1.603877
 H         2.630239        -2.470277        -0.180327
 H         2.999984        -1.959691         1.523576
 H         4.378845         1.906307         1.367922
 H         3.988091         2.239591        -0.410556
 H         2.444502         0.620953         1.873815
