19
Iteration:  4566
 C         0.100227         0.926224        -0.183124
 C         1.453425         0.276116        -0.008966
 C         2.493127         0.057150        -1.267678
 C         3.395292        -0.414594         0.055321
 C         2.596733        -1.677739         0.600503
 O         1.326858        -1.039396         0.628245
 O         4.771925         0.083763         0.027704
 C         4.045303         1.419231         0.419231
 C         2.647956         0.701106         0.868284
 H        -0.526635         0.586578         0.688005
 H         0.129524         2.018988        -0.451468
 H        -0.417237         0.482584        -1.010069
 H         2.296976        -0.718795        -2.077412
 H         2.670088         0.964907        -1.767617
 H         2.586829        -2.594123        -0.002596
 H         2.876163        -1.851332         1.669945
 H         4.619007         1.879215         1.221756
 H         4.200872         2.054586        -0.431271
 H         2.491674         0.527641         1.961699
