19
Iteration:  3711
 C         0.098645         0.802129        -0.221225
 C         1.505764         0.293918        -0.017535
 C         2.392276        -0.004341        -1.211591
 C         3.331756        -0.370821        -0.002899
 C         2.568975        -1.692202         0.476954
 O         1.275487        -0.945462         0.619443
 O         4.770012         0.090857         0.168111
 C         4.129998         1.385732         0.459938
 C         2.761476         0.790441         0.833431
 H        -0.467441         0.809698         0.700602
 H        -0.080242         1.799606        -0.582258
 H        -0.325596         0.002458        -0.823325
 H         2.140551        -0.928767        -1.748172
 H         2.659497         0.873978        -1.813741
 H         2.491604        -2.632013        -0.194817
 H         3.096170        -1.901222         1.412352
 H         4.740454         1.812262         1.282993
 H         4.290760         2.178311        -0.419556
 H         2.550158         0.717018         1.881890
