19
Iteration:  3223charge 0 multiplicity 1
 C         0.134090         0.955156        -0.182447
 C         1.461892         0.307402        -0.038377
 C         2.406482        -0.157633        -1.226153
 C         3.339212        -0.394191        -0.020899
 C         2.655308        -1.687522         0.529222
 O         1.296744        -1.084056         0.631483
 O         4.713052         0.171109         0.074630
 C         4.115951         1.442638         0.528562
 C         2.709364         0.765892         0.816993
 H        -0.376123         1.169923         0.767086
 H         0.189347         1.919886        -0.838478
 H        -0.470628         0.377832        -0.976091
 H         2.107466        -1.010519        -1.817963
 H         2.907065         0.576904        -1.857655
 H         2.671385        -2.658264        -0.073800
 H         3.053790        -1.840898         1.604483
 H         4.425433         1.822542         1.473005
 H         4.225608         2.222294        -0.264073
 H         2.531184         0.757338         1.901787
