19
Iteration:   138
 C         0.129513         0.902740        -0.213165
 C         1.562342         0.346377         0.031112
 C         2.465502        -0.044337        -1.261461
 C         3.426987        -0.388695        -0.055374
 C         2.678057        -1.657136         0.569244
 O         1.259779        -1.113347         0.507026
 O         4.716106         0.183384         0.169073
 C         3.936965         1.479449         0.481918
 C         2.725584         0.642917         0.906926
 H        -0.390774         1.198714         0.802772
 H         0.083035         1.760110        -0.811062
 H        -0.461112         0.058806        -0.585146
 H         2.042011        -0.944877        -1.845162
 H         2.552334         0.964588        -1.846062
 H         2.744119        -2.475759        -0.267650
 H         3.162597        -2.075787         1.538772
 H         4.465815         2.012666         1.188341
 H         3.836445         2.084436        -0.430416
 H         2.545144         0.433562         2.027153
