19
Iteration:  4391
 C         0.197375         1.023980        -0.167037
 C         1.538710         0.361054        -0.045021
 C         2.387814        -0.125620        -1.146614
 C         3.379444        -0.417899         0.036722
 C         2.670174        -1.681853         0.568232
 O         1.327235        -1.102560         0.525049
 O         4.666540         0.195045         0.067638
 C         4.033801         1.387566         0.382213
 C         2.713522         0.650711         0.874984
 H        -0.315352         1.039780         0.813916
 H         0.316599         2.110527        -0.282496
 H        -0.392889         0.641946        -0.942187
 H         2.020069        -1.074006        -1.671576
 H         2.790503         0.739971        -1.779950
 H         2.662192        -2.731125         0.168693
 H         2.836920        -1.942650         1.658963
 H         4.397152         1.958158         1.277251
 H         3.776133         2.021153        -0.573630
 H         2.253298         0.889879         1.898956
