19
Iteration:  4762
 C         0.114458         0.876287        -0.168777
 C         1.466601         0.316519        -0.037853
 C         2.421654        -0.046770        -1.221664
 C         3.268929        -0.457057         0.049722
 C         2.659293        -1.695218         0.582246
 O         1.331903        -1.051137         0.545634
 O         4.656198         0.116105         0.050775
 C         4.142632         1.380537         0.418043
 C         2.720067         0.847264         0.868529
 H        -0.458208         0.962214         0.835180
 H         0.302126         2.017673        -0.219326
 H        -0.472297         0.538294        -1.010490
 H         2.115262        -0.802986        -1.978260
 H         2.997827         0.856978        -1.555565
 H         2.864840        -2.483488        -0.160536
 H         2.956487        -2.052626         1.592567
 H         4.705004         1.679354         1.437978
 H         4.231298         2.303416        -0.278622
 H         2.708134         0.790085         2.003614
