19
Iteration:  1228
 C         0.065119         0.887909        -0.281494
 C         1.455918         0.267140        -0.034400
 C         2.468376        -0.065246        -1.199942
 C         3.375137        -0.395039         0.054247
 C         2.809177        -1.702642         0.529013
 O         1.254421        -1.043558         0.557444
 O         4.710150         0.134261         0.100284
 C         4.107775         1.472058         0.516592
 C         2.660056         0.741310         0.871388
 H        -0.472551         0.805530         0.613037
 H         0.153903         1.969919        -0.395198
 H        -0.601274         0.474508        -1.019278
 H         2.271853        -0.870229        -1.915457
 H         2.799504         0.804275        -1.685385
 H         2.536318        -2.509696        -0.142171
 H         2.800990        -1.907814         1.576659
 H         4.584678         1.818682         1.495109
 H         4.128265         2.067772        -0.390381
 H         2.359626         0.938979         1.971435
