19
Iteration:  4396charge 0 multiplicity 1
 C         0.185188         1.022572        -0.177208
 C         1.547479         0.359621        -0.035992
 C         2.371262        -0.117773        -1.190477
 C         3.360241        -0.433531         0.017269
 C         2.663730        -1.715646         0.592119
 O         1.330502        -1.068450         0.535062
 O         4.672731         0.181999         0.062045
 C         4.016912         1.414152         0.405899
 C         2.715211         0.672019         0.915555
 H        -0.372580         0.842283         0.753159
 H         0.261869         2.099068        -0.404653
 H        -0.498544         0.612876        -1.005399
 H         2.212392        -1.006045        -1.757868
 H         2.793199         0.674530        -1.741338
 H         2.731525        -2.702125         0.139750
 H         2.905055        -1.829579         1.633123
 H         4.723718         1.898482         1.093821
 H         3.768031         1.972437        -0.431609
 H         2.394535         0.715922         1.936527
