19
Iteration:  2192
 C         0.142352         0.939673        -0.154584
 C         1.425547         0.242243        -0.154851
 C         2.588610        -0.015858        -1.262103
 C         3.293067        -0.425309         0.076455
 C         2.688836        -1.661945         0.585481
 O         1.345263        -1.064049         0.610531
 O         4.710353         0.107823         0.114754
 C         4.002320         1.447970         0.465061
 C         2.621660         0.690192         0.778672
 H         0.011618         1.248749         0.900179
 H         0.270812         1.891765        -0.732617
 H        -0.827584         0.385695        -0.522152
 H         2.324387        -0.678131        -2.060760
 H         2.831444         1.020648        -1.709012
 H         2.702565        -2.633737         0.067783
 H         3.000711        -1.691030         1.690488
 H         4.592608         1.833412         1.344118
 H         4.005418         2.173146        -0.325299
 H         2.339097         0.649595         1.828398
