19
Iteration:  4088
 C         0.194264         1.073495        -0.063848
 C         1.549812         0.252180        -0.115311
 C         2.479184        -0.177062        -1.216033
 C         3.401996        -0.430679         0.102586
 C         2.680983        -1.632797         0.652451
 O         1.303944        -1.080120         0.459756
 O         4.640824         0.058590         0.089900
 C         3.952950         1.445954         0.413543
 C         2.660649         0.772046         0.774732
 H        -0.158647         1.034918         0.988424
 H         0.367539         2.134002        -0.333020
 H        -0.590986         0.774090        -0.729299
 H         2.231858        -0.993568        -1.820001
 H         2.728667         0.820663        -1.563594
 H         2.791102        -2.500480        -0.010439
 H         3.004905        -1.832788         1.666404
 H         4.471809         2.044326         1.196891
 H         3.929931         2.015686        -0.528403
 H         2.358281         0.713008         1.852085
