19
Iteration:   806charge 0 multiplicity 1
 C         0.242500         0.893976        -0.216652
 C         1.535263         0.278915        -0.080422
 C         2.495103         0.007612        -1.163394
 C         3.359325        -0.447966         0.019005
 C         2.695822        -1.704763         0.545744
 O         1.305625        -1.097824         0.504011
 O         4.626465         0.257659         0.120175
 C         3.959442         1.437082         0.515675
 C         2.663125         0.663512         0.912567
 H        -0.119353         1.401697         0.628842
 H         0.173435         1.639916        -1.092461
 H        -0.349650         0.074204        -0.693596
 H         2.133502        -0.557566        -2.019614
 H         2.773943         1.056778        -1.597543
 H         2.531389        -2.697349         0.008586
 H         2.965895        -2.067760         1.627774
 H         4.468286         2.067280         1.191078
 H         3.815672         2.104762        -0.337566
 H         2.576263         0.391609         2.006356
