19
Iteration:  4589charge 0 multiplicity 1
 C         0.102283         0.819377        -0.179046
 C         1.464923         0.352502        -0.020774
 C         2.441615        -0.025767        -1.136229
 C         3.291471        -0.404426         0.070823
 C         2.678398        -1.625737         0.529912
 O         1.291937        -1.040365         0.520656
 O         4.643060         0.072620         0.076979
 C         4.132115         1.374970         0.429211
 C         2.777667         0.837520         0.862962
 H        -0.452065         0.461568         0.719862
 H         0.047092         1.904827        -0.482342
 H        -0.429091         0.341719        -0.989165
 H         1.965812        -0.723439        -1.883080
 H         2.986465         0.732948        -1.715064
 H         2.667599        -2.536432        -0.121571
 H         3.092438        -1.771302         1.581182
 H         4.826076         1.786394         1.179707
 H         4.382765         2.132038        -0.395475
 H         2.576213         0.726328         1.959247
