19
Iteration:  4965
 C         0.216120         1.033476        -0.083005
 C         1.541601         0.266946        -0.042312
 C         2.502223        -0.025318        -1.206933
 C         3.356785        -0.438074         0.005538
 C         2.659427        -1.631496         0.601017
 O         1.317542        -1.119338         0.521038
 O         4.650516         0.126260         0.094866
 C         3.951900         1.387628         0.399522
 C         2.683463         0.694982         0.820373
 H         0.037426         1.278658         1.013937
 H         0.354310         2.018653        -0.617656
 H        -0.838214         0.632707        -0.525509
 H         2.034876        -0.827071        -1.857952
 H         2.816789         0.620978        -1.996128
 H         2.697758        -2.564016        -0.037630
 H         2.887936        -1.761581         1.672072
 H         4.501458         1.872532         1.211102
 H         3.946813         2.126746        -0.427320
 H         2.424746         0.539302         1.875057
