19
Iteration:   702
 C         0.223817         1.007996        -0.240682
 C         1.507928         0.227662         0.013043
 C         2.473981        -0.094797        -1.221179
 C         3.331552        -0.381978         0.134771
 C         2.665266        -1.687459         0.504505
 O         1.314840        -1.201379         0.501670
 O         4.698217         0.263244         0.093623
 C         3.949671         1.473487         0.487353
 C         2.682751         0.711386         0.854514
 H        -0.409640         0.735629         0.629407
 H         0.280846         2.028193        -0.336529
 H        -0.309132         0.506674        -0.991777
 H         2.293616        -0.942681        -1.848936
 H         2.918938         0.817316        -1.601404
 H         2.836596        -2.500552        -0.194865
 H         2.664248        -2.023807         1.531293
 H         4.467208         1.976300         1.413643
 H         3.901978         2.245468        -0.407046
 H         2.417175         0.601733         1.989038
