19
Iteration:   769charge 0 multiplicity 1
 C         0.037882         0.884210        -0.200964
 C         1.441009         0.225996        -0.112103
 C         2.480596        -0.071688        -1.178392
 C         3.335277        -0.359629         0.078458
 C         2.751145        -1.655589         0.481035
 O         1.316536        -1.084780         0.487701
 O         4.697055         0.177176         0.198815
 C         4.160603         1.404558         0.546870
 C         2.642301         0.827215         0.776185
 H        -0.507440         0.663217         0.740534
 H         0.017225         1.889423        -0.504055
 H        -0.556374         0.190733        -0.770410
 H         2.087764        -0.860597        -1.881745
 H         2.656996         0.856323        -1.642165
 H         2.752734        -2.496804        -0.248650
 H         3.132001        -1.883536         1.466477
 H         4.545298         1.752982         1.640907
 H         4.230127         2.135881        -0.361029
 H         2.530018         0.726613         1.977934
