19
Iteration:  1421charge 0 multiplicity 1
 C         0.191231         1.026182        -0.117502
 C         1.480575         0.214171        -0.170186
 C         2.526420        -0.103334        -1.219453
 C         3.362726        -0.398211         0.089288
 C         2.707119        -1.734028         0.591084
 O         1.267016        -1.153260         0.547081
 O         4.698680         0.167481         0.162792
 C         3.975490         1.492443         0.462351
 C         2.640977         0.767685         0.788758
 H        -0.446743         1.024792         0.805505
 H         0.610957         2.030559        -0.357058
 H        -0.402445         0.854759        -1.055093
 H         2.297599        -0.697005        -2.196417
 H         2.679743         0.812724        -1.914796
 H         2.703980        -2.684192         0.063348
 H         2.975427        -2.132454         1.613727
 H         4.340059         2.041767         1.312216
 H         3.940385         2.143525        -0.433436
 H         2.523961         0.703464         1.812829
