19
Iteration:  3452
 C         0.162500         0.962313        -0.148527
 C         1.495515         0.320045        -0.064186
 C         2.500399        -0.065766        -1.200484
 C         3.333191        -0.432336         0.068930
 C         2.621919        -1.707377         0.592346
 O         1.259598        -1.131188         0.534373
 O         4.711817         0.120451         0.008689
 C         4.071318         1.501483         0.420783
 C         2.672244         0.746930         0.892375
 H        -0.391612         0.943017         0.762390
 H         0.234914         2.037600        -0.308007
 H        -0.305234         0.457981        -1.001584
 H         2.185164        -0.995873        -1.755379
 H         3.071397         0.694690        -1.729977
 H         2.830929        -2.618539         0.051583
 H         2.814114        -1.899444         1.643112
 H         4.627616         1.879573         1.301007
 H         3.913376         2.437041        -0.314860
 H         2.478567         0.838503         2.019105
