19
Iteration:  3828
 C         0.136034         0.861892        -0.190798
 C         1.526018         0.364129         0.014126
 C         2.450876         0.006158        -1.216032
 C         3.340635        -0.433083         0.027338
 C         2.618259        -1.697165         0.585733
 O         1.276501        -1.061206         0.507132
 O         4.667680         0.085788         0.148559
 C         4.107371         1.414572         0.416777
 C         2.735236         0.802792         0.836764
 H        -0.252398         1.166820         0.850319
 H         0.124060         1.815507        -0.800285
 H        -0.508688         0.003085        -0.602531
 H         1.975513        -0.690462        -1.834442
 H         2.852835         0.847015        -1.743347
 H         2.522224        -2.535789        -0.046930
 H         2.991062        -1.963881         1.582078
 H         4.890816         1.849929         1.072081
 H         3.990150         2.050674        -0.450043
 H         2.622656         0.742480         1.893322
