19
Iteration:  3318
 C         0.282985         1.028787        -0.084685
 C         1.483941         0.271819        -0.100466
 C         2.444263        -0.119385        -1.259806
 C         3.359046        -0.472041         0.005605
 C         2.653382        -1.590084         0.591666
 O         1.290656        -1.131729         0.605394
 O         4.667893         0.189365         0.120534
 C         3.952252         1.448516         0.465487
 C         2.669428         0.644705         0.731191
 H         0.070948         1.139371         0.942976
 H         0.439278         1.957169        -0.494446
 H        -0.392613         0.669500        -0.801198
 H         2.239407        -0.871677        -2.044053
 H         2.921782         0.786460        -1.755493
 H         2.702172        -2.564498         0.157632
 H         3.095120        -1.685891         1.549499
 H         4.300158         1.899784         1.394451
 H         4.051093         2.133012        -0.434234
 H         2.376608         0.572227         1.778688
