19
Iteration:  1575charge 0 multiplicity 1
 C         0.200176         1.038801        -0.223776
 C         1.494294         0.287214        -0.019717
 C         2.483401        -0.051401        -1.180915
 C         3.354574        -0.473595         0.171898
 C         2.711012        -1.742450         0.578338
 O         1.281530        -1.193884         0.474125
 O         4.677661         0.201478         0.095294
 C         3.960559         1.490709         0.420910
 C         2.679934         0.741543         0.842754
 H        -0.567552         1.206200         0.489900
 H         0.538314         2.043887        -0.363022
 H        -0.452781         0.828938        -1.020275
 H         2.161363        -0.942831        -1.878343
 H         3.059460         0.696740        -1.716835
 H         2.897675        -2.733235         0.057522
 H         2.984441        -1.986740         1.727746
 H         4.445022         1.964957         1.320888
 H         3.861142         2.144506        -0.521528
 H         2.406102         0.671908         1.816300
