19
Iteration:    84
 C         0.158401         0.973394        -0.091733
 C         1.500497         0.281264        -0.085658
 C         2.594875         0.011978        -1.184144
 C         3.288093        -0.344184         0.063182
 C         2.639298        -1.700343         0.596332
 O         1.336517        -1.252643         0.488183
 O         4.701737         0.175335         0.082194
 C         3.973475         1.425116         0.436847
 C         2.596160         0.754611         0.790364
 H        -0.278893         1.087066         1.033258
 H         0.254943         2.012800        -0.353640
 H        -0.580418         0.445371        -0.743755
 H         2.255163        -0.830317        -1.827221
 H         3.153968         0.818535        -1.739545
 H         2.986608        -2.518987        -0.106323
 H         3.099163        -1.750424         1.637818
 H         4.509951         1.815767         1.236444
 H         3.925343         2.207295        -0.440010
 H         2.338973         0.632049         1.966341
