19
Iteration:  3426charge 0 multiplicity 1
 C         0.080697         0.861086        -0.172854
 C         1.439755         0.314119        -0.083568
 C         2.354588        -0.022179        -1.258709
 C         3.320941        -0.371696        -0.010687
 C         2.699375        -1.587140         0.609110
 O         1.384554        -1.007833         0.570562
 O         4.712494         0.050643         0.147931
 C         4.191329         1.347343         0.468521
 C         2.630835         0.780680         0.802997
 H        -0.584552         0.598950         0.761118
 H         0.123539         1.960814        -0.283033
 H        -0.445003         0.260503        -0.953198
 H         2.031776        -0.864133        -1.919155
 H         2.852206         0.812896        -1.867440
 H         2.820522        -2.473500        -0.030604
 H         2.891307        -1.774572         1.669541
 H         4.652600         1.660550         1.424218
 H         4.279895         2.203763        -0.308344
 H         2.505805         0.575989         1.849420
