19
Iteration:  2290
 C         0.276770         1.028610        -0.147629
 C         1.509960         0.265716        -0.089730
 C         2.424432        -0.131009        -1.225119
 C         3.358015        -0.441138         0.016282
 C         2.676141        -1.642243         0.609701
 O         1.263812        -1.155906         0.545373
 O         4.631742         0.192763         0.139097
 C         3.985993         1.482910         0.411457
 C         2.718115         0.697695         0.846997
 H        -0.224759         1.060274         0.808451
 H         0.523176         2.059937        -0.494471
 H        -0.416276         0.606077        -0.971471
 H         2.135774        -0.917360        -1.968278
 H         2.940422         0.655161        -1.856669
 H         2.927008        -2.533561         0.063211
 H         2.926033        -1.793759         1.710469
 H         4.183956         1.963229         1.384639
 H         4.117568         2.159799        -0.488771
 H         2.450175         0.530847         1.895320
