19
Iteration:  4196
 C         0.179699         0.992574        -0.114336
 C         1.496405         0.264227        -0.079376
 C         2.408071        -0.086823        -1.218894
 C         3.374987        -0.429100         0.079865
 C         2.680736        -1.617840         0.587204
 O         1.363719        -1.074551         0.497622
 O         4.639155         0.118216         0.105713
 C         4.003343         1.372942         0.424785
 C         2.690593         0.737560         0.790601
 H        -0.225004         1.240241         0.979641
 H         0.281369         2.122875        -0.402928
 H        -0.625097         0.463817        -0.681904
 H         2.344831        -0.927792        -1.938493
 H         2.964665         0.717058        -1.796879
 H         2.556672        -2.690304         0.190433
 H         2.936027        -1.592334         1.719195
 H         4.421851         2.001258         1.206457
 H         3.911142         2.015521        -0.426234
 H         2.670508         0.653985         1.950372
