19
Iteration:  4065
 C         0.195669         1.058536        -0.049768
 C         1.562299         0.255782        -0.089612
 C         2.553172        -0.083344        -1.301076
 C         3.384207        -0.443139         0.023264
 C         2.599579        -1.721823         0.617904
 O         1.226054        -1.063682         0.575318
 O         4.673425         0.184954         0.163421
 C         3.957573         1.408118         0.336817
 C         2.703778         0.676918         0.777305
 H        -0.236154         1.024555         0.998065
 H         0.390015         2.099458        -0.363424
 H        -0.562348         0.807115        -0.780007
 H         2.183855        -1.014958        -1.619453
 H         3.172358         0.623297        -1.858273
 H         2.756095        -2.641673         0.078517
 H         2.943074        -1.762238         1.624504
 H         4.404431         2.006593         1.108374
 H         3.862048         2.019795        -0.560515
 H         2.505765         0.593483         1.869734
