19
Iteration:  4335charge 0 multiplicity 1
 C         0.142940         0.954848        -0.121142
 C         1.510416         0.360869        -0.012699
 C         2.400460        -0.083756        -1.219034
 C         3.381354        -0.414317        -0.001193
 C         2.682721        -1.682192         0.603361
 O         1.310289        -1.067429         0.564129
 O         4.740422         0.068029         0.127446
 C         3.985565         1.419716         0.387898
 C         2.707275         0.746444         0.767732
 H        -0.233798         1.253173         0.857719
 H         0.190773         1.860920        -0.704571
 H        -0.457446         0.173085        -0.564628
 H         2.222584        -0.808174        -2.026119
 H         2.872268         0.798263        -1.819441
 H         2.612371        -2.485609        -0.123061
 H         2.732549        -1.792650         1.685448
 H         4.310448         1.898250         1.344246
 H         3.960636         2.310264        -0.347411
 H         2.542538         0.669238         1.870487
