19
Iteration:  2012
 C         0.242957         1.029068        -0.219884
 C         1.522917         0.282664        -0.006939
 C         2.421314        -0.151050        -1.181649
 C         3.386270        -0.444437         0.114150
 C         2.723098        -1.711621         0.514924
 O         1.254694        -1.139218         0.461223
 O         4.651877         0.233122         0.192263
 C         3.997241         1.519372         0.427354
 C         2.704064         0.679180         0.827334
 H         0.080403         1.380213         0.826380
 H         0.286959         2.014667        -0.822948
 H        -0.628479         0.502877        -0.597756
 H         1.881183        -0.975976        -1.737236
 H         2.670894         0.696878        -1.779794
 H         2.618080        -2.604998        -0.141374
 H         3.019579        -1.956533         1.524930
 H         4.507902         1.925602         1.191818
 H         3.889419         2.155522        -0.433944
 H         2.485113         0.430457         1.908671
