19
Iteration:  1725
 C         0.270970         1.003953        -0.236568
 C         1.515366         0.281491        -0.004674
 C         2.445557        -0.164170        -1.252924
 C         3.363951        -0.377790         0.084370
 C         2.693993        -1.716855         0.592363
 O         1.328625        -1.106944         0.487830
 O         4.663090         0.174954         0.128483
 C         3.943250         1.509175         0.494845
 C         2.639385         0.715659         0.841967
 H        -0.177583         0.958015         0.816492
 H         0.447355         2.073201        -0.390100
 H        -0.543745         0.720709        -0.988031
 H         2.076301        -1.039639        -1.869355
 H         2.703069         0.520959        -1.970346
 H         2.800934        -2.492681        -0.187940
 H         2.768164        -2.027382         1.624710
 H         4.418590         1.934056         1.307548
 H         3.968625         2.220283        -0.298881
 H         2.491970         0.536798         1.959352
