19
Iteration:   502charge 0 multiplicity 1
 C         0.069156         0.869089        -0.168456
 C         1.486658         0.267416        -0.053458
 C         2.494591        -0.003924        -1.175329
 C         3.385558        -0.391570         0.065275
 C         2.709906        -1.627637         0.535886
 O         1.327353        -1.082270         0.488390
 O         4.733421         0.163027         0.220590
 C         4.022894         1.435099         0.449859
 C         2.612396         0.638847         0.756467
 H        -0.254014         0.970078         0.804045
 H         0.136578         1.917966        -0.594582
 H        -0.624177         0.394592        -0.875179
 H         2.222826        -0.715046        -2.099669
 H         2.742608         0.982409        -1.609151
 H         2.688424        -2.457886        -0.112505
 H         3.095544        -1.772701         1.555117
 H         4.381672         1.915300         1.341274
 H         3.999434         2.231870        -0.406223
 H         2.556663         0.499731         1.829850
