19
Iteration:    20
 C         0.124301         0.826267        -0.235984
 C         1.439292         0.218401        -0.057595
 C         2.505251         0.063255        -1.225551
 C         3.292338        -0.387558         0.101196
 C         2.789502        -1.744257         0.479283
 O         1.366557        -1.043407         0.682231
 O         4.632836         0.074114         0.060857
 C         4.067749         1.457941         0.488285
 C         2.604410         0.828281         0.800235
 H        -0.555633         0.823546         0.740680
 H         0.358885         1.888177        -0.303204
 H        -0.363680         0.426818        -1.162364
 H         2.312207        -0.628471        -1.972039
 H         2.891212         1.015901        -1.517087
 H         2.713941        -2.337841        -0.377469
 H         3.015158        -2.240161         1.415066
 H         4.470137         1.698899         1.443292
 H         4.231989         2.423190        -0.239095
 H         2.348981         0.796907         1.983218
