19
Iteration:   860
 C         0.161677         0.909493        -0.114230
 C         1.482750         0.230572        -0.095377
 C         2.511341        -0.027959        -1.273750
 C         3.346525        -0.393595         0.089379
 C         2.678268        -1.643792         0.534916
 O         1.368625        -1.134233         0.504337
 O         4.654211         0.166420         0.196141
 C         3.965119         1.475393         0.475399
 C         2.656376         0.728862         0.784648
 H        -0.304833         0.997059         0.784363
 H         0.420519         1.929436        -0.495340
 H        -0.507349         0.370288        -0.798855
 H         2.131580        -0.725174        -1.993194
 H         2.956816         0.801789        -1.933915
 H         2.770565        -2.515840        -0.152140
 H         2.971441        -1.916731         1.623886
 H         4.281874         1.739724         1.537170
 H         4.064380         2.211454        -0.435731
 H         2.513752         0.753135         1.942023
