19
Iteration:  2230
 C         0.115944         0.773346        -0.214164
 C         1.514675         0.358539        -0.044677
 C         2.337824         0.001155        -1.140032
 C         3.337702        -0.379717         0.020289
 C         2.582953        -1.671617         0.591264
 O         1.323361        -1.036774         0.487325
 O         4.729526         0.112880         0.131711
 C         4.170558         1.431639         0.453823
 C         2.716795         0.768861         0.854839
 H        -0.641054         0.686713         0.567145
 H         0.210896         1.795422        -0.579912
 H        -0.180034         0.219723        -1.021230
 H         1.863813        -0.934656        -1.511107
 H         2.634134         0.698423        -1.854336
 H         2.855827        -2.536592        -0.062406
 H         2.761486        -1.916186         1.604790
 H         4.577377         1.997032         1.335382
 H         4.395826         2.060910        -0.501387
 H         2.648565         0.838690         1.959883
