19
Iteration:  1577
 C         0.206121         1.027526        -0.229173
 C         1.507155         0.298808        -0.009719
 C         2.458176        -0.048577        -1.168053
 C         3.349999        -0.481809         0.153446
 C         2.732329        -1.739275         0.572087
 O         1.282946        -1.182569         0.477526
 O         4.673975         0.210448         0.106215
 C         3.974798         1.477930         0.412409
 C         2.660897         0.730287         0.828618
 H        -0.613246         1.159920         0.483000
 H         0.615136         2.098787        -0.375733
 H        -0.486883         0.839921        -1.021495
 H         2.156779        -0.929506        -1.801094
 H         3.138499         0.648188        -1.820452
 H         2.963137        -2.675224         0.103026
 H         2.875997        -2.011677         1.699457
 H         4.484458         1.947035         1.324063
 H         3.786370         2.108547        -0.407973
 H         2.383114         0.695336         1.858220
