19
Iteration:   151charge 0 multiplicity 1
 C         0.074155         0.877079        -0.242447
 C         1.445126         0.271450        -0.040955
 C         2.481296         0.033534        -1.096996
 C         3.356060        -0.422425         0.070757
 C         2.700109        -1.670542         0.497450
 O         1.345760        -1.082720         0.530499
 O         4.696919         0.186564         0.069611
 C         4.037093         1.428704         0.482564
 C         2.709395         0.702139         0.878362
 H        -0.469600         1.066252         0.769328
 H         0.075511         1.791410        -0.873456
 H        -0.501867         0.111918        -0.820780
 H         2.230520        -0.659503        -1.891358
 H         2.964010         0.883462        -1.583750
 H         2.680860        -2.590174        -0.141690
 H         2.905673        -1.906892         1.582470
 H         4.580033         1.935057         1.235082
 H         3.853854         2.129783        -0.405021
 H         2.650757         0.449848         2.040002
