19
Iteration:  3369charge 0 multiplicity 1
 C         0.214712         0.976634        -0.220443
 C         1.546223         0.368466         0.005365
 C         2.458143        -0.051287        -1.151707
 C         3.367791        -0.408145         0.088113
 C         2.647522        -1.722664         0.562302
 O         1.312305        -1.130571         0.514128
 O         4.662166         0.092700         0.051146
 C         3.952935         1.446989         0.423544
 C         2.713299         0.827828         0.909254
 H        -0.164226         1.071282         0.897175
 H         0.047512         1.914864        -0.888042
 H        -0.482883         0.192046        -0.684177
 H         2.008918        -0.873416        -1.715705
 H         2.796552         0.675309        -1.944320
 H         2.800345        -2.480220        -0.264669
 H         2.735584        -2.292294         1.558429
 H         4.632443         2.000459         1.199090
 H         3.862619         1.962693        -0.517605
 H         2.655041         0.693633         2.017008
