19
Iteration:  1079
 C         0.145213         0.882945        -0.290407
 C         1.494897         0.293673        -0.042868
 C         2.447798         0.007495        -1.177271
 C         3.366129        -0.364292         0.070145
 C         2.786925        -1.715305         0.581109
 O         1.303942        -1.115952         0.576753
 O         4.631268         0.163697         0.054053
 C         4.057473         1.395021         0.498322
 C         2.602332         0.793284         0.861175
 H        -0.539418         0.721603         0.552215
 H         0.136281         1.998724        -0.382168
 H        -0.265759         0.541055        -1.264161
 H         2.309301        -0.871034        -1.837346
 H         2.825939         0.886205        -1.616851
 H         2.786777        -2.565979        -0.072752
 H         3.045607        -1.988271         1.553747
 H         4.540786         1.793286         1.374851
 H         4.199915         2.082767        -0.253526
 H         2.473982         0.634831         1.947869
