19
Iteration:  4173charge 0 multiplicity 1
 C         0.097846         0.879378        -0.224316
 C         1.506660         0.370682        -0.060827
 C         2.394222        -0.044252        -1.202946
 C         3.352973        -0.378471         0.030328
 C         2.660822        -1.675441         0.578663
 O         1.215235        -1.112544         0.617195
 O         4.748885         0.084252         0.069617
 C         4.121098         1.474932         0.484584
 C         2.755779         0.765305         0.811033
 H        -0.326486         1.261403         0.791285
 H         0.122266         1.909809        -0.692095
 H        -0.589102         0.166828        -0.729541
 H         2.002230        -0.904254        -1.822556
 H         2.804430         0.734498        -1.908794
 H         2.551636        -2.631225        -0.088277
 H         3.162886        -1.867658         1.572350
 H         4.525341         1.885069         1.384931
 H         4.322464         2.146091        -0.317646
 H         2.614290         0.556157         1.920439
