19
Iteration:  4033
 C         0.142335         0.961267        -0.224765
 C         1.486070         0.262643        -0.011106
 C         2.397509        -0.041709        -1.174028
 C         3.352882        -0.382130         0.087304
 C         2.652358        -1.645888         0.558390
 O         1.276532        -1.096825         0.573637
 O         4.718120         0.101525         0.099356
 C         4.097909         1.372890         0.391298
 C         2.703526         0.782188         0.842015
 H        -0.413353         1.272503         0.687978
 H         0.483548         1.942004        -0.558576
 H        -0.500765         0.430235        -0.887950
 H         2.049389        -0.902550        -1.724981
 H         2.788336         0.729843        -1.908307
 H         2.792015        -2.527881        -0.189971
 H         2.992270        -1.854801         1.612476
 H         4.572679         1.917765         1.225759
 H         4.053178         2.045721        -0.497002
 H         2.565012         0.667689         1.943343
