19
Iteration:   191
 C         0.056182         0.783527        -0.228130
 C         1.478887         0.366819        -0.012266
 C         2.387168        -0.028209        -1.206567
 C         3.356583        -0.356294        -0.021521
 C         2.706471        -1.583907         0.499995
 O         1.328347        -1.105239         0.557946
 O         4.689137         0.141184         0.092551
 C         4.097040         1.390318         0.575143
 C         2.709114         0.761137         0.838520
 H        -0.500385         0.542117         0.673066
 H         0.113950         1.847291        -0.306213
 H        -0.427757         0.471414        -1.132769
 H         2.158259        -0.969570        -1.831522
 H         2.869313         0.855347        -1.778654
 H         2.864017        -2.558467         0.004606
 H         3.108270        -1.720835         1.525596
 H         4.543753         1.760704         1.532643
 H         4.243029         2.113220        -0.187300
 H         2.537711         0.595810         1.845611
