19
Iteration:   585charge 0 multiplicity 1
 C         0.173971         0.862970        -0.251821
 C         1.475886         0.204644        -0.050856
 C         2.476615         0.054428        -1.229821
 C         3.380632        -0.402503         0.058375
 C         2.674959        -1.630714         0.525703
 O         1.371873        -1.082500         0.577499
 O         4.625804         0.155309         0.204513
 C         4.002160         1.414830         0.497766
 C         2.684217         0.726027         0.738212
 H        -0.325357         0.747274         0.759901
 H         0.308873         1.941897        -0.457313
 H        -0.527684         0.284335        -0.900101
 H         2.078815        -0.566953        -2.060209
 H         2.713445         1.053828        -1.496465
 H         2.874115        -2.476326        -0.203745
 H         2.927002        -1.994746         1.543071
 H         4.374462         1.988886         1.382686
 H         3.861102         2.045168        -0.284009
 H         2.622322         0.564334         1.851849
