19
Iteration:  2228
 C         0.108585         0.770247        -0.207071
 C         1.503586         0.355819        -0.037322
 C         2.362717         0.001923        -1.158538
 C         3.318841        -0.378769         0.030403
 C         2.574161        -1.649393         0.587140
 O         1.339645        -1.037110         0.489556
 O         4.738099         0.116420         0.136597
 C         4.166502         1.422337         0.431598
 C         2.710991         0.752962         0.846812
 H        -0.615640         0.715198         0.620043
 H         0.192362         1.849214        -0.625594
 H        -0.212640         0.192519        -1.066964
 H         1.821431        -0.921203        -1.535572
 H         2.632770         0.754786        -1.806337
 H         2.879410        -2.562651        -0.034326
 H         2.765942        -1.915524         1.651455
 H         4.615967         1.932455         1.426421
 H         4.356748         2.037984        -0.443339
 H         2.666149         0.860185         1.975527
