19
Iteration:  2173charge 0 multiplicity 1
 C         0.244829         1.015968        -0.121081
 C         1.519829         0.273012        -0.064632
 C         2.412671        -0.150434        -1.210245
 C         3.374883        -0.464910        -0.013761
 C         2.691330        -1.679422         0.597265
 O         1.285017        -1.131288         0.499121
 O         4.681707         0.234417         0.168168
 C         3.953047         1.461110         0.500166
 C         2.683347         0.758962         0.760223
 H        -0.078183         1.446101         0.799462
 H         0.286440         1.804001        -0.942656
 H        -0.436728         0.346344        -0.620105
 H         2.059475        -1.037545        -1.787775
 H         2.744869         0.666647        -1.816834
 H         2.785542        -2.476064        -0.188163
 H         2.795591        -2.115085         1.613116
 H         4.402265         1.934683         1.505218
 H         4.123192         2.015400        -0.413870
 H         2.578958         0.705384         1.897219
