19
Iteration:  2388
 C         0.062266         0.891753        -0.282514
 C         1.443190         0.353531         0.025233
 C         2.445184        -0.100339        -1.213953
 C         3.357721        -0.389298         0.026128
 C         2.645831        -1.691577         0.575939
 O         1.308128        -1.104152         0.565902
 O         4.669548         0.121814         0.091530
 C         4.159312         1.441603         0.507093
 C         2.726870         0.832873         0.849599
 H        -0.392284         0.978344         0.662514
 H         0.054998         1.893970        -0.724684
 H        -0.481949         0.201400        -0.928193
 H         2.100836        -0.860771        -2.013314
 H         2.810566         0.752469        -1.747000
 H         2.651563        -2.611911         0.046961
 H         3.150242        -1.862290         1.564608
 H         4.767316         1.734596         1.384502
 H         4.218371         2.083651        -0.465894
 H         2.679346         0.856371         1.950804
