19
Iteration:  3407charge 0 multiplicity 1
 C        -0.016633         0.827333        -0.204343
 C         1.476900         0.285904        -0.079920
 C         2.449087         0.050293        -1.266323
 C         3.405383        -0.411922        -0.053501
 C         2.661671        -1.577713         0.575507
 O         1.255509        -1.066362         0.670836
 O         4.691752         0.003809         0.145874
 C         4.150967         1.421309         0.538025
 C         2.793531         0.825017         0.743296
 H        -0.367359         0.798747         0.791366
 H        -0.149556         1.851171        -0.395977
 H        -0.568297         0.268279        -0.970708
 H         2.260381        -0.809493        -1.970603
 H         2.633948         1.058529        -1.624072
 H         2.569474        -2.499682         0.034647
 H         3.186920        -1.802617         1.454328
 H         4.513434         1.991551         1.340762
 H         4.301886         2.030732        -0.467230
 H         2.701327         0.578672         1.807236
