19
Iteration:  1831
 C         0.197414         0.921506        -0.204358
 C         1.501681         0.216226        -0.097274
 C         2.513666         0.019173        -1.204900
 C         3.351947        -0.396699         0.039474
 C         2.628825        -1.661733         0.555333
 O         1.323627        -1.104270         0.542318
 O         4.632466         0.156505         0.146380
 C         4.000920         1.426502         0.477829
 C         2.678524         0.769973         0.829262
 H        -0.123087         1.312294         0.745986
 H         0.273104         1.705098        -0.864114
 H        -0.470778         0.186201        -0.597062
 H         2.305206        -0.776037        -1.962680
 H         2.769960         0.942440        -1.565045
 H         2.468845        -2.605976         0.125274
 H         3.078782        -1.861568         1.537037
 H         4.514829         1.726578         1.421368
 H         4.073627         2.094857        -0.385558
 H         2.622611         0.412678         1.877002
