19
Iteration:   189
 C         0.072244         0.785700        -0.229175
 C         1.477523         0.364357        -0.006715
 C         2.390783        -0.029233        -1.193659
 C         3.356339        -0.348544        -0.018606
 C         2.711279        -1.593053         0.492848
 O         1.317839        -1.121641         0.562440
 O         4.686064         0.138665         0.079989
 C         4.101897         1.381276         0.578441
 C         2.693482         0.793862         0.828180
 H        -0.472810         0.545273         0.625636
 H         0.089784         1.904186        -0.291597
 H        -0.405991         0.380306        -1.138145
 H         2.203378        -0.915675        -1.808948
 H         2.863551         0.817582        -1.676681
 H         2.845085        -2.513204         0.006603
 H         3.077478        -1.706079         1.479579
 H         4.569028         1.772075         1.578278
 H         4.254467         2.109216        -0.202173
 H         2.557546         0.593780         1.827430
