19
Iteration:   757
 C         0.058717         0.795117        -0.219528
 C         1.451287         0.282723        -0.092601
 C         2.395846        -0.003392        -1.244848
 C         3.357454        -0.352334         0.015441
 C         2.720409        -1.648918         0.524234
 O         1.321357        -1.134500         0.490460
 O         4.667269         0.102664         0.224648
 C         4.123860         1.484473         0.542706
 C         2.718407         0.823003         0.818957
 H        -0.289922         0.659351         0.849952
 H         0.089183         1.853858        -0.252234
 H        -0.573512         0.501850        -1.015150
 H         2.271478        -0.926867        -1.850480
 H         2.802951         0.774013        -1.825581
 H         2.901587        -2.529996        -0.097315
 H         2.882226        -1.911952         1.543928
 H         4.717256         1.914586         1.492181
 H         4.373045         2.308252        -0.249027
 H         2.382412         0.806450         1.924481
