19
Iteration:  1510charge 0 multiplicity 1
 C         0.042454         0.848636        -0.206766
 C         1.483172         0.349716        -0.165072
 C         2.457610        -0.030462        -1.185443
 C         3.328995        -0.366320         0.099607
 C         2.699889        -1.622246         0.515990
 O         1.317150        -1.091313         0.540541
 O         4.700187         0.136922         0.185218
 C         4.141505         1.377953         0.520937
 C         2.653251         0.774311         0.793417
 H        -0.304481         1.090730         0.798749
 H         0.196727         1.682734        -0.879925
 H        -0.650715         0.109221        -0.561234
 H         2.043683        -0.867405        -1.875847
 H         2.816449         0.740140        -1.803838
 H         2.725272        -2.501648        -0.073922
 H         3.161735        -1.936889         1.471258
 H         4.560082         1.813365         1.450676
 H         4.254045         1.981267        -0.333979
 H         2.525797         0.693618         1.822407
