19
Iteration:  3871
 C         0.103102         0.874568        -0.207745
 C         1.482277         0.298259        -0.091703
 C         2.454994        -0.014409        -1.235503
 C         3.272878        -0.413186        -0.033387
 C         2.685522        -1.671169         0.565316
 O         1.300977        -1.031351         0.641828
 O         4.629770         0.065701         0.053390
 C         4.179355         1.367907         0.526289
 C         2.700509         0.844681         0.874604
 H        -0.458829         1.078201         0.719671
 H         0.308767         1.832089        -0.637189
 H        -0.442817         0.205289        -0.839021
 H         2.251681        -0.746442        -1.953206
 H         3.002304         0.809048        -1.627425
 H         2.750402        -2.562601         0.028543
 H         3.104157        -1.784005         1.564087
 H         4.692924         1.845813         1.389227
 H         4.279592         2.063064        -0.328919
 H         2.359807         0.778877         1.883091
