19
Iteration:   977charge 0 multiplicity 1
 C         0.214293         1.015623        -0.116659
 C         1.538243         0.187436        -0.095645
 C         2.508033        -0.070666        -1.222849
 C         3.328037        -0.350556         0.068852
 C         2.640222        -1.712976         0.576318
 O         1.327137        -1.195770         0.462153
 O         4.687576         0.213270         0.154043
 C         3.974901         1.535990         0.479633
 C         2.629542         0.711088         0.796251
 H        -0.202448         1.376524         0.861647
 H         0.315309         1.895743        -0.835684
 H        -0.583974         0.292479        -0.467214
 H         2.213723        -0.980809        -1.700550
 H         2.823380         0.696365        -1.969042
 H         2.676322        -2.555831        -0.124133
 H         2.890160        -2.019319         1.566385
 H         4.456610         1.933792         1.422493
 H         3.934379         2.183343        -0.289842
 H         2.532299         0.615517         1.940159
