19
Iteration:  2300
 C         0.211819         1.046526        -0.157114
 C         1.507365         0.309827        -0.027649
 C         2.436624        -0.172573        -1.206165
 C         3.362002        -0.401219         0.063895
 C         2.680081        -1.612017         0.608733
 O         1.290612        -1.177481         0.453491
 O         4.652105         0.201061         0.129924
 C         4.013786         1.473972         0.471869
 C         2.669497         0.658483         0.785054
 H        -0.194950         1.221558         0.814022
 H         0.473068         2.028113        -0.523994
 H        -0.567693         0.540459        -0.821277
 H         2.138580        -1.180178        -1.507216
 H         2.873228         0.583015        -1.957648
 H         2.658069        -2.551107         0.101675
 H         2.936362        -1.775848         1.695647
 H         4.653720         2.057615         1.177274
 H         3.954149         2.128024        -0.539194
 H         2.703223         0.443829         1.857064
