19
Iteration:  4567
 C         0.096920         0.919020        -0.187098
 C         1.456477         0.278420        -0.009584
 C         2.493111         0.058384        -1.268560
 C         3.394064        -0.411889         0.058469
 C         2.592598        -1.668704         0.603653
 O         1.332196        -1.038155         0.625744
 O         4.765209         0.075508         0.023950
 C         4.052318         1.416933         0.423631
 C         2.644283         0.700528         0.869974
 H        -0.516450         0.609722         0.710348
 H         0.112944         2.037184        -0.410109
 H        -0.385174         0.447983        -1.025274
 H         2.324157        -0.728799        -2.073998
 H         2.640082         0.987689        -1.787461
 H         2.620365        -2.606817        -0.030148
 H         2.843862        -1.878216         1.697934
 H         4.623998         1.916855         1.220729
 H         4.200735         2.096159        -0.454640
 H         2.511928         0.517900         1.970509
