19
Iteration:  1377
 C         0.140376         0.822106        -0.238957
 C         1.519224         0.280774         0.009197
 C         2.424271        -0.000907        -1.208211
 C         3.314193        -0.403564         0.060485
 C         2.619507        -1.645646         0.572219
 O         1.292395        -1.073784         0.445435
 O         4.741970         0.076147         0.127799
 C         4.052323         1.511647         0.529209
 C         2.708598         0.785492         0.863737
 H        -0.340950         1.012894         0.772835
 H         0.126364         1.850629        -0.618942
 H        -0.614376         0.271913        -0.850717
 H         2.228782        -0.964060        -1.811054
 H         3.011738         0.677561        -1.960165
 H         2.833823        -2.572159         0.042086
 H         2.861129        -1.924192         1.632486
 H         4.648323         2.085119         1.185467
 H         4.055317         2.098087        -0.405964
 H         2.586426         0.737565         1.887359
