19
Iteration:  4561charge 0 multiplicity 1
 C         0.114440         0.951642        -0.162123
 C         1.455907         0.267252        -0.025424
 C         2.477916         0.022950        -1.233524
 C         3.392333        -0.430328         0.022094
 C         2.630812        -1.698069         0.584921
 O         1.286772        -1.049509         0.635431
 O         4.784355         0.128532         0.057413
 C         4.015291         1.409922         0.415836
 C         2.689273         0.710571         0.843090
 H        -0.558641         0.630559         0.611039
 H         0.228475         1.949238        -0.533680
 H        -0.553988         0.573626        -1.023301
 H         2.143120        -0.646496        -1.992011
 H         2.916035         1.000782        -1.680664
 H         2.434273        -2.647490         0.049873
 H         3.081121        -1.789776         1.565854
 H         4.591328         1.712837         1.308762
 H         4.114697         2.025960        -0.524785
 H         2.446614         0.629075         1.895426
