19
Iteration:  3269
 C         0.102144         0.790333        -0.204465
 C         1.505188         0.330541         0.050183
 C         2.501004         0.091310        -1.166184
 C         3.332257        -0.394496         0.030750
 C         2.615803        -1.683633         0.601399
 O         1.244555        -1.097310         0.558793
 O         4.668924         0.072663         0.115217
 C         4.164447         1.402803         0.336602
 C         2.730057         0.866484         0.820685
 H        -0.498392         0.668150         0.730329
 H        -0.026640         1.872505        -0.635681
 H        -0.188598         0.160888        -1.080826
 H         2.114903        -0.689882        -1.844805
 H         2.694877         0.983842        -1.702873
 H         2.656877        -2.522468        -0.126865
 H         2.918691        -2.059177         1.630139
 H         4.747804         1.759715         1.274211
 H         4.176270         2.135753        -0.476411
 H         2.665195         0.755981         1.921062
