19
Iteration:   799
 C         0.198109         0.873099        -0.279788
 C         1.550988         0.259941        -0.097073
 C         2.531061         0.044952        -1.202407
 C         3.331245        -0.449209         0.029687
 C         2.674411        -1.725316         0.517764
 O         1.316706        -1.086495         0.540784
 O         4.650185         0.211205         0.124125
 C         3.940503         1.454580         0.523643
 C         2.691934         0.689802         0.930189
 H        -0.085090         1.168210         0.834520
 H         0.083626         1.728960        -0.959973
 H        -0.564741         0.109102        -0.525791
 H         2.059547        -0.655093        -1.890939
 H         2.809553         1.012924        -1.564480
 H         2.531614        -2.649840        -0.023424
 H         3.043645        -1.808875         1.515118
 H         4.466890         2.019008         1.311927
 H         3.803322         2.199252        -0.261085
 H         2.653844         0.615321         1.956384
