19
Iteration:  1338charge 0 multiplicity 1
 C         0.104912         0.870934        -0.270704
 C         1.432486         0.268858        -0.057935
 C         2.534155         0.013907        -1.256356
 C         3.392893        -0.374512        -0.004124
 C         2.701987        -1.640795         0.525442
 O         1.342716        -1.061300         0.638664
 O         4.680021         0.053937         0.111527
 C         4.007517         1.438541         0.541097
 C         2.648620         0.774501         0.855722
 H        -0.269285         1.292386         0.653921
 H         0.228071         1.706099        -1.025920
 H        -0.561881         0.127510        -0.730945
 H         2.170213        -0.761473        -1.933488
 H         2.915355         0.896871        -1.628202
 H         2.453667        -2.555150        -0.059849
 H         3.080931        -1.873024         1.526638
 H         4.634543         1.775158         1.481346
 H         3.932427         2.273781        -0.196068
 H         2.471848         0.527344         2.010122
