19
Iteration:  2737charge 0 multiplicity 1
 C         0.238896         1.009392        -0.064349
 C         1.500770         0.289036        -0.054178
 C         2.375445        -0.179248        -1.304980
 C         3.401612        -0.484406         0.033731
 C         2.708617        -1.637284         0.636134
 O         1.306729        -1.074470         0.487730
 O         4.721956         0.146590         0.216739
 C         3.932399         1.460327         0.381799
 C         2.643763         0.767118         0.743844
 H         0.018578         1.205463         1.013094
 H         0.391225         2.100567        -0.511767
 H        -0.709882         0.752675        -0.482181
 H         2.172658        -1.110283        -1.833846
 H         2.991073         0.474800        -2.026328
 H         2.649113        -2.515370         0.020178
 H         2.986641        -1.737990         1.659363
 H         4.266424         1.869497         1.254655
 H         4.001214         2.027241        -0.554064
 H         2.445474         0.588606         1.821169
