19
Iteration:  1951
 C         0.103362         0.816456        -0.237503
 C         1.489382         0.336596         0.014801
 C         2.397202        -0.025407        -1.229688
 C         3.394194        -0.400776         0.080145
 C         2.603064        -1.596618         0.574664
 O         1.329873        -1.082285         0.466300
 O         4.700343         0.098698         0.139208
 C         4.134585         1.435916         0.489909
 C         2.678297         0.781669         0.833741
 H        -0.530271         0.778597         0.656120
 H         0.299659         1.812748        -0.505453
 H        -0.365827         0.197374        -0.992626
 H         1.821840        -0.716124        -1.890326
 H         2.801064         0.742591        -1.836253
 H         2.558605        -2.565607         0.078450
 H         3.012093        -1.823473         1.600553
 H         4.789061         1.836777         1.436468
 H         4.130125         2.220615        -0.334083
 H         2.688753         0.591467         1.882400
