19
Iteration:  3808
 C         0.193754         1.012385        -0.103619
 C         1.480477         0.302281        -0.102556
 C         2.518179        -0.091017        -1.185758
 C         3.320805        -0.421991         0.147896
 C         2.668574        -1.672364         0.507326
 O         1.306775        -1.067868         0.574998
 O         4.701842         0.095534         0.078573
 C         4.009402         1.424301         0.384376
 C         2.639422         0.723918         0.822116
 H        -0.150580         1.235727         0.951721
 H         0.253696         1.949213        -0.735052
 H        -0.645863         0.475413        -0.640669
 H         2.408805        -0.923657        -1.826406
 H         2.993846         0.744052        -1.692559
 H         2.698150        -2.486732        -0.247603
 H         2.836425        -2.032475         1.520547
 H         4.322399         2.010365         1.247348
 H         3.985921         2.032837        -0.444310
 H         2.481388         0.729552         1.870047
