19
Iteration:  4244
 C         0.183814         0.992454        -0.133899
 C         1.483934         0.253016        -0.034757
 C         2.476340        -0.117153        -1.149339
 C         3.333355        -0.460778        -0.001906
 C         2.681139        -1.682864         0.574412
 O         1.300631        -1.044422         0.509727
 O         4.748151         0.107991         0.121871
 C         3.967720         1.502006         0.353578
 C         2.672597         0.721746         0.875622
 H        -0.287148         1.049488         0.833313
 H         0.500234         2.051896        -0.198492
 H        -0.547948         0.709357        -0.927826
 H         2.029649        -0.998482        -1.591318
 H         2.633732         0.546489        -1.924611
 H         2.747187        -2.458908        -0.143482
 H         2.817277        -1.929419         1.589167
 H         4.425257         2.152300         1.145035
 H         3.868100         2.205512        -0.535969
 H         2.738175         0.659399         1.940028
