19
Iteration:   969charge 0 multiplicity 1
 C         0.187883         0.962622        -0.159586
 C         1.481989         0.246829        -0.033178
 C         2.496838        -0.083101        -1.272987
 C         3.407635        -0.404746         0.038195
 C         2.689517        -1.681695         0.588442
 O         1.264140        -1.121875         0.501828
 O         4.728809         0.286027         0.165297
 C         3.941710         1.408015         0.472256
 C         2.662638         0.668513         0.807995
 H        -0.034032         1.252692         0.801673
 H         0.327083         1.884295        -0.789220
 H        -0.599671         0.416112        -0.676760
 H         2.121452        -0.936126        -1.815956
 H         2.768394         0.790728        -1.907297
 H         2.795042        -2.436090        -0.122950
 H         2.819020        -2.118449         1.552265
 H         4.331157         1.887188         1.459193
 H         3.929060         2.297768        -0.302520
 H         2.527374         0.449088         1.930812
