19
Iteration:  4316
 C         0.055762         0.852824        -0.212232
 C         1.539000         0.331055        -0.053085
 C         2.385166        -0.023687        -1.182261
 C         3.352464        -0.392838         0.039904
 C         2.633892        -1.680646         0.604312
 O         1.321917        -1.040572         0.555489
 O         4.647665         0.103825         0.061451
 C         4.164649         1.433068         0.491995
 C         2.730043         0.770051         0.831512
 H        -0.314138         1.243020         0.775072
 H        -0.049338         1.810372        -0.786945
 H        -0.542451         0.050422        -0.583818
 H         1.929683        -0.910847        -1.726963
 H         2.935082         0.648433        -1.937073
 H         2.641434        -2.498738        -0.140789
 H         3.050483        -1.754294         1.637449
 H         4.942881         1.813308         1.157320
 H         4.235961         2.079167        -0.378129
 H         2.612396         0.541842         1.968228
