19
Iteration:  2868
 C         0.193007         0.994859        -0.045386
 C         1.560265         0.283936        -0.034759
 C         2.480922        -0.173474        -1.229657
 C         3.328070        -0.443788        -0.034367
 C         2.661289        -1.617056         0.644711
 O         1.325009        -1.042603         0.423810
 O         4.686757         0.142003         0.143551
 C         3.958620         1.442217         0.402378
 C         2.675174         0.702764         0.802367
 H        -0.123878         1.309668         0.986295
 H         0.318656         1.902011        -0.744921
 H        -0.537599         0.338542        -0.434601
 H         1.985692        -1.026730        -1.629338
 H         2.698294         0.683653        -1.907881
 H         2.640620        -2.616618         0.280050
 H         2.885730        -1.656190         1.690458
 H         4.355884         1.927557         1.295869
 H         4.096304         2.347209        -0.433277
 H         2.495929         0.435813         1.845723
