19
Iteration:  2220charge 0 multiplicity 1
 C         0.061412         0.811884        -0.228066
 C         1.465392         0.338319         0.017908
 C         2.455484        -0.006849        -1.233540
 C         3.314931        -0.399225         0.091197
 C         2.627646        -1.584387         0.593116
 O         1.340293        -1.057119         0.512046
 O         4.736363         0.104810         0.143666
 C         4.135643         1.383367         0.413202
 C         2.710818         0.754356         0.812768
 H        -0.422209         0.790457         0.755867
 H        -0.006042         1.795918        -0.602689
 H        -0.406932         0.188885        -0.933569
 H         1.971227        -0.717051        -1.934915
 H         2.750396         0.907897        -1.730039
 H         2.655058        -2.526882         0.041081
 H         2.873126        -1.786095         1.605702
 H         4.632074         1.597865         1.310438
 H         4.136629         2.219055        -0.409312
 H         2.627322         0.708638         1.904591
