19
Iteration:  3842charge 0 multiplicity 1
 C         0.047557         0.859511        -0.176875
 C         1.466333         0.334603        -0.055743
 C         2.345467         0.051702        -1.174897
 C         3.327685        -0.411634         0.037066
 C         2.646604        -1.618116         0.584919
 O         1.271935        -1.005050         0.532204
 O         4.786234         0.053347         0.118287
 C         4.167399         1.389571         0.418082
 C         2.766596         0.699403         0.853201
 H        -0.659328         1.163143         0.639571
 H         0.096836         1.750536        -0.906929
 H        -0.374595        -0.104551        -0.720805
 H         2.137791        -0.696359        -1.963881
 H         2.869968         0.897100        -1.689448
 H         2.911947        -2.618970         0.064818
 H         2.810593        -1.777591         1.660349
 H         4.377943         1.960107         1.330061
 H         4.384018         1.938655        -0.472360
 H         2.592834         0.566734         1.920231
