19
Iteration:  2266charge 0 multiplicity 1
 C         0.136630         0.960058        -0.230967
 C         1.446964         0.257044        -0.094023
 C         2.500908         0.016668        -1.161548
 C         3.426200        -0.449756         0.080286
 C         2.650763        -1.677340         0.587735
 O         1.370916        -1.058745         0.660164
 O         4.663942         0.134492         0.069001
 C         4.003297         1.403410         0.433083
 C         2.629553         0.713767         0.788683
 H        -0.442429         0.903883         0.678337
 H         0.458536         1.949373        -0.292343
 H        -0.478558         0.794771        -1.139761
 H         2.568926        -0.763137        -1.891351
 H         2.960177         0.912428        -1.757987
 H         2.497909        -2.562124        -0.023308
 H         2.954595        -2.007413         1.591700
 H         4.343233         1.936585         1.254566
 H         4.034483         1.973973        -0.602048
 H         2.303295         0.472213         1.778108
