19
Iteration:  4679
 C         0.171057         1.100065        -0.111853
 C         1.462836         0.251627        -0.000789
 C         2.484412        -0.087879        -1.139576
 C         3.354063        -0.468509         0.084985
 C         2.718619        -1.741397         0.542664
 O         1.244018        -1.143548         0.470354
 O         4.643799         0.198674         0.059742
 C         4.080441         1.486023         0.439281
 C         2.682087         0.725301         0.839060
 H        -0.289290         1.307969         0.788383
 H         0.521617         1.795111        -0.819864
 H        -0.643819         0.574744        -0.663533
 H         2.228293        -1.035737        -1.551867
 H         2.703678         0.761746        -1.907275
 H         2.678187        -2.575547        -0.221509
 H         3.061106        -2.005332         1.569370
 H         4.780489         1.932702         1.163069
 H         3.925100         2.047500        -0.508620
 H         2.671801         0.641622         1.922398
