19
Iteration:   435
 C         0.038625         0.922621        -0.254056
 C         1.492049         0.268900        -0.055799
 C         2.594334         0.033756        -1.208088
 C         3.353703        -0.410364         0.019593
 C         2.614145        -1.662489         0.625125
 O         1.366536        -1.159005         0.555355
 O         4.703535         0.223194         0.055152
 C         3.991294         1.455895         0.548175
 C         2.698076         0.604933         0.880298
 H        -0.323666         1.226321         0.676605
 H         0.191347         1.824950        -0.872687
 H        -0.654149         0.267749        -0.815263
 H         2.170411        -0.495894        -2.170674
 H         2.843768         0.956794        -1.693022
 H         2.769415        -2.493701        -0.007822
 H         2.938191        -1.818693         1.656037
 H         4.544419         1.919134         1.354635
 H         3.829877         2.161829        -0.338160
 H         2.475662         0.371804         1.878532
