19
Iteration:  3240charge 0 multiplicity 1
 C         0.050717         0.891850        -0.287814
 C         1.452766         0.318634        -0.047462
 C         2.465110         0.040647        -1.212748
 C         3.391911        -0.419252         0.016849
 C         2.708881        -1.613122         0.588037
 O         1.314487        -1.021270         0.683991
 O         4.703189         0.062536         0.115648
 C         4.052998         1.361466         0.430269
 C         2.737407         0.707853         0.811842
 H        -0.534143         0.873419         0.641511
 H         0.124329         1.881976        -0.589129
 H        -0.468380         0.144963        -0.888639
 H         2.032409        -0.810247        -1.788634
 H         2.604347         1.083826        -1.655346
 H         2.652388        -2.320758        -0.232569
 H         3.021307        -1.947930         1.545972
 H         4.748433         1.884376         1.170454
 H         4.002365         2.140365        -0.360039
 H         2.509645         0.462571         1.876238
