19
Iteration:  2213charge 0 multiplicity 1
 C         0.044773         0.854922        -0.214447
 C         1.473404         0.309208        -0.033048
 C         2.473197         0.005897        -1.225623
 C         3.386190        -0.408492         0.054699
 C         2.686611        -1.603524         0.617439
 O         1.283999        -1.061635         0.539692
 O         4.696185         0.065739         0.121653
 C         4.094101         1.386144         0.439217
 C         2.716814         0.792422         0.811671
 H        -0.458089         0.822475         0.778804
 H        -0.039238         1.881015        -0.599067
 H        -0.595531         0.071121        -0.812546
 H         2.289245        -0.654790        -2.071248
 H         2.958625         0.977185        -1.686127
 H         2.618916        -2.491688        -0.001726
 H         3.019684        -1.771079         1.694831
 H         4.622343         1.843142         1.300519
 H         4.123514         2.135720        -0.346603
 H         2.566028         0.591406         1.859612
