19
Iteration:    96charge 0 multiplicity 1
 C         0.122044         1.064467        -0.030312
 C         1.429089         0.253805        -0.142831
 C         2.614858        -0.040013        -1.267409
 C         3.375279        -0.406693         0.104976
 C         2.790543        -1.679819         0.519655
 O         1.276111        -1.275469         0.532680
 O         4.653867         0.154135         0.120920
 C         3.955604         1.469961         0.452094
 C         2.599933         0.777924         0.774993
 H        -0.180391         1.223732         1.115578
 H         0.330974         1.978280        -0.579537
 H        -0.759143         0.578309        -0.540942
 H         2.600607        -0.872175        -1.948539
 H         3.058261         0.839261        -1.755365
 H         2.909078        -2.608973        -0.058846
 H         3.002240        -1.976006         1.588613
 H         4.308360         1.882853         1.347287
 H         4.085228         2.244024        -0.433808
 H         2.401133         0.878307         1.966623
