19
Iteration:  2850charge 0 multiplicity 1
 C         0.124831         0.966628        -0.106180
 C         1.486950         0.276494        -0.125139
 C         2.465137        -0.103513        -1.297979
 C         3.377557        -0.449236         0.049643
 C         2.665952        -1.650325         0.592925
 O         1.289116        -1.078799         0.639787
 O         4.648548         0.142856         0.091617
 C         4.090275         1.437900         0.494248
 C         2.681344         0.791617         0.746157
 H        -0.013604         1.144460         0.993996
 H         0.103444         1.802107        -0.749786
 H        -0.669057         0.350619        -0.615280
 H         2.325037        -0.942977        -2.039805
 H         3.002318         0.638908        -1.825886
 H         2.693914        -2.484509        -0.138114
 H         2.865409        -1.874999         1.690613
 H         4.588366         1.842397         1.351797
 H         4.184541         2.076708        -0.351143
 H         2.498049         0.698657         1.834711
