19
Iteration:  4178
 C         0.092116         0.914800        -0.183342
 C         1.473926         0.334264        -0.055236
 C         2.413037        -0.082303        -1.220679
 C         3.362729        -0.387298        -0.003078
 C         2.667140        -1.678531         0.627144
 O         1.251706        -1.076205         0.566606
 O         4.739685         0.105791         0.092702
 C         4.103145         1.454633         0.464624
 C         2.742377         0.733013         0.821700
 H        -0.319929         1.266635         0.730166
 H         0.189550         1.904329        -0.631484
 H        -0.515970         0.194429        -0.730781
 H         1.911273        -0.885512        -1.731369
 H         2.697297         0.778691        -1.816099
 H         2.679587        -2.391489        -0.135262
 H         3.015815        -1.862195         1.628126
 H         4.697340         1.900125         1.334874
 H         4.356087         2.184022        -0.362517
 H         2.462264         0.482936         1.848543
