19
Iteration:   998charge 0 multiplicity 1
 C         0.100213         0.981864        -0.143682
 C         1.550789         0.265026        -0.099326
 C         2.511802        -0.066195        -1.154098
 C         3.324031        -0.430300         0.095780
 C         2.818279        -1.677654         0.591924
 O         1.306721        -1.164038         0.398421
 O         4.650286         0.179191         0.166497
 C         3.972095         1.409074         0.418688
 C         2.612767         0.778926         0.831267
 H        -0.034932         1.370359         0.940203
 H         0.244049         1.926937        -0.772207
 H        -0.851169         0.381850        -0.358847
 H         2.199737        -0.693785        -1.968687
 H         3.016484         0.864509        -1.548594
 H         2.982726        -2.551948        -0.149231
 H         2.870461        -2.008530         1.653311
 H         4.537874         1.891277         1.266276
 H         3.909700         2.064276        -0.457300
 H         2.421107         0.887856         1.962030
