19
Iteration:  3821charge 0 multiplicity 1
 C         0.135934         0.933736        -0.194214
 C         1.548826         0.326186        -0.055752
 C         2.508088        -0.016520        -1.156128
 C         3.381315        -0.396474         0.028083
 C         2.560344        -1.683799         0.583210
 O         1.326781        -1.085818         0.532582
 O         4.619485         0.082499         0.131107
 C         4.034015         1.415238         0.388263
 C         2.725570         0.800137         0.857664
 H        -0.099909         1.157688         0.845081
 H         0.077835         1.940067        -0.631520
 H        -0.481276         0.066696        -0.465247
 H         2.059933        -0.825581        -1.795845
 H         2.704630         0.872853        -1.817165
 H         2.702531        -2.549988        -0.177512
 H         2.928335        -2.108998         1.541430
 H         4.765902         1.768693         1.121840
 H         4.142906         2.041004        -0.497962
 H         2.616573         0.660292         1.941638
