19
Iteration:   797
 C         0.177488         0.865928        -0.284690
 C         1.547593         0.259211        -0.085490
 C         2.530205         0.045661        -1.212415
 C         3.335802        -0.441449         0.031113
 C         2.660587        -1.721661         0.513503
 O         1.321396        -1.084914         0.547831
 O         4.660600         0.195719         0.124750
 C         3.939331         1.471987         0.527299
 C         2.699767         0.693894         0.924400
 H        -0.096376         1.102778         0.797364
 H         0.100241         1.803476        -0.941705
 H        -0.629812         0.110328        -0.472591
 H         2.109514        -0.689810        -1.869690
 H         2.883801         1.048900        -1.617189
 H         2.595240        -2.659967        -0.095079
 H         3.072232        -1.778605         1.555471
 H         4.430909         1.896373         1.311591
 H         3.813918         2.164170        -0.242521
 H         2.610225         0.655554         1.943679
