19
Iteration:  3468
 C         0.234984         1.050958        -0.185935
 C         1.501802         0.235797        -0.027086
 C         2.526701        -0.061586        -1.151627
 C         3.386765        -0.434009         0.123074
 C         2.577371        -1.725055         0.635282
 O         1.268253        -1.126555         0.532011
 O         4.702469         0.271402         0.023132
 C         3.989979         1.422713         0.351748
 C         2.665288         0.651438         0.870217
 H        -0.303510         1.053002         0.813257
 H         0.597115         2.041785        -0.509937
 H        -0.567431         0.640167        -0.797118
 H         2.260624        -0.713732        -1.946913
 H         2.838063         0.862907        -1.687406
 H         2.494512        -2.526194        -0.146496
 H         2.838700        -2.108101         1.672771
 H         4.557160         2.020772         1.069661
 H         3.913622         1.859205        -0.540825
 H         2.533911         0.380026         1.899993
