19
Iteration:  1044
 C         0.104626         0.839969        -0.243974
 C         1.461924         0.257712        -0.071636
 C         2.430141         0.011568        -1.219284
 C         3.358213        -0.415552         0.069367
 C         2.729996        -1.671289         0.546976
 O         1.290660        -1.023667         0.573939
 O         4.693877         0.206493         0.138979
 C         4.099021         1.420809         0.518295
 C         2.664559         0.732216         0.803511
 H        -0.484890         0.647033         0.661755
 H         0.173192         1.956350        -0.636838
 H        -0.351816         0.081806        -0.982010
 H         2.275128        -0.846230        -1.866368
 H         2.740621         0.859798        -1.861635
 H         2.588795        -2.514828        -0.158635
 H         2.984150        -2.045121         1.528184
 H         4.573259         1.830280         1.499481
 H         4.208226         2.076870        -0.284231
 H         2.646832         0.441816         1.954025
