19
Iteration:  4453charge 0 multiplicity 1
 C         0.010096         0.845881        -0.184644
 C         1.517786         0.377383        -0.021317
 C         2.394506        -0.037827        -1.223694
 C         3.327427        -0.367915         0.054661
 C         2.669600        -1.647132         0.537531
 O         1.342505        -1.034798         0.596673
 O         4.651436         0.023949         0.096941
 C         4.122295         1.420081         0.462039
 C         2.775065         0.764600         0.816018
 H        -0.430443         1.117070         0.811617
 H         0.148980         1.846146        -0.655452
 H        -0.699159         0.170994        -0.831465
 H         2.126145        -0.859305        -1.856728
 H         2.968919         0.675230        -1.905531
 H         2.865923        -2.406456        -0.266045
 H         2.932214        -1.908933         1.586070
 H         4.762503         1.842641         1.267540
 H         4.345738         2.136385        -0.304566
 H         2.561219         0.807709         1.869789
