19
Iteration:  1122charge 0 multiplicity 1
 C         0.150567         0.988581        -0.114183
 C         1.500591         0.271296        -0.098232
 C         2.563225        -0.052616        -1.224717
 C         3.363876        -0.440410         0.096590
 C         2.724468        -1.694148         0.582248
 O         1.251729        -1.118180         0.463316
 O         4.719638         0.231687         0.185899
 C         3.974654         1.460350         0.379049
 C         2.617516         0.640245         0.834602
 H        -0.249541         1.028207         0.935777
 H         0.281287         2.067590        -0.521986
 H        -0.491513         0.349878        -0.805096
 H         2.238347        -0.985701        -1.748418
 H         2.814524         0.774156        -1.826418
 H         2.859458        -2.607803        -0.044119
 H         2.862822        -1.869751         1.619014
 H         4.483945         2.070396         1.189260
 H         3.864949         2.092281        -0.465796
 H         2.345163         0.694288         1.911850
