19
Iteration:  4026charge 0 multiplicity 1
 C         0.121935         0.949484        -0.225710
 C         1.462727         0.329655         0.007274
 C         2.480799        -0.033210        -1.198473
 C         3.369745        -0.402158         0.073609
 C         2.717506        -1.619401         0.546893
 O         1.254547        -1.111379         0.595358
 O         4.644445         0.071093         0.073482
 C         4.101139         1.373448         0.422354
 C         2.712880         0.796739         0.872935
 H        -0.456851         1.210334         0.639527
 H         0.443088         1.881956        -0.752447
 H        -0.501822         0.388675        -0.942584
 H         2.171500        -0.889539        -1.811950
 H         2.519846         0.751535        -1.985062
 H         2.642393        -2.576665        -0.014126
 H         3.103773        -1.995591         1.553354
 H         4.678674         1.868908         1.283479
 H         4.090739         1.968282        -0.520425
 H         2.610979         0.810337         1.964128
