19
Iteration:  2857charge 0 multiplicity 1
 C         0.179097         0.954838        -0.060455
 C         1.472137         0.303166        -0.063952
 C         2.493060        -0.175229        -1.306459
 C         3.335775        -0.423646         0.016567
 C         2.650630        -1.662745         0.636109
 O         1.316247        -1.047645         0.540605
 O         4.624224         0.155186         0.120691
 C         4.053357         1.432195         0.494127
 C         2.712024         0.752103         0.727767
 H        -0.206213         1.319961         0.920911
 H         0.226803         1.891874        -0.713989
 H        -0.528767         0.286901        -0.481613
 H         2.315556        -0.991024        -1.980253
 H         2.870313         0.715690        -1.887750
 H         2.625272        -2.540950         0.013601
 H         3.056806        -1.842995         1.601538
 H         4.570152         1.809200         1.371213
 H         4.001024         2.195680        -0.456160
 H         2.554836         0.775937         1.803673
