19
Iteration:  1989
 C         0.205157         0.977617        -0.176293
 C         1.496203         0.230058        -0.052017
 C         2.560045        -0.065196        -1.241779
 C         3.314164        -0.421407         0.047317
 C         2.625829        -1.650661         0.576150
 O         1.346455        -1.113347         0.566202
 O         4.714214         0.165398         0.094092
 C         3.980426         1.452854         0.481838
 C         2.602313         0.696465         0.821960
 H        -0.008606         1.380476         0.828434
 H         0.327990         1.934607        -0.788185
 H        -0.700624         0.549760        -0.601904
 H         2.208640        -0.817413        -1.948096
 H         2.999193         0.885191        -1.642488
 H         2.702688        -2.488184        -0.158348
 H         2.915527        -1.980431         1.574495
 H         4.313913         1.947225         1.333683
 H         4.031271         2.030185        -0.437457
 H         2.121746         0.594367         1.886404
