19
Iteration:   852charge 0 multiplicity 1
 C         0.164374         0.961645        -0.148945
 C         1.475642         0.230430        -0.054812
 C         2.492363        -0.067919        -1.265586
 C         3.291445        -0.394829         0.106188
 C         2.747977        -1.655930         0.533670
 O         1.341739        -1.171873         0.485751
 O         4.650829         0.210300         0.173595
 C         4.052840         1.465996         0.510321
 C         2.598566         0.710508         0.784467
 H        -0.202119         1.201559         0.887019
 H         0.298138         1.955148        -0.624653
 H        -0.576438         0.484165        -0.796935
 H         2.236787        -0.888937        -1.937908
 H         2.977953         0.811832        -1.744507
 H         2.975706        -2.472259        -0.196948
 H         2.945953        -2.066668         1.564822
 H         4.549330         1.927362         1.263869
 H         3.918813         2.182034        -0.232926
 H         2.403051         0.758289         1.782888
