19
Iteration:  1913charge 0 multiplicity 1
 C         0.052534         0.896291        -0.177080
 C         1.465969         0.257893        -0.138161
 C         2.554462         0.017635        -1.172428
 C         3.394871        -0.453239         0.008963
 C         2.630506        -1.657720         0.566807
 O         1.360746        -1.060189         0.619260
 O         4.670824         0.113568         0.163593
 C         4.025304         1.436589         0.418699
 C         2.677392         0.735375         0.828562
 H        -0.696627         0.795036         0.657959
 H         0.299873         2.036857        -0.495507
 H        -0.496463         0.605131        -1.142878
 H         2.346231        -0.704145        -1.963038
 H         3.096854         0.926814        -1.703028
 H         2.635662        -2.461724        -0.230380
 H         2.772496        -1.919413         1.615760
 H         4.639173         1.769061         1.196229
 H         4.183702         2.209001        -0.335337
 H         2.391339         0.602072         1.952868
