19
Iteration:  3370charge 0 multiplicity 1
 C         0.206816         0.967369        -0.221153
 C         1.551642         0.365820         0.000921
 C         2.453489        -0.041273        -1.158051
 C         3.378105        -0.414052         0.095044
 C         2.644553        -1.724978         0.560647
 O         1.310364        -1.124662         0.518131
 O         4.661502         0.089032         0.048772
 C         3.960691         1.445466         0.431860
 C         2.714158         0.832142         0.910903
 H        -0.201904         1.053479         0.888799
 H         0.071032         1.903946        -0.870918
 H        -0.493036         0.185117        -0.663767
 H         2.027463        -0.875126        -1.734123
 H         2.788343         0.688947        -1.979892
 H         2.771418        -2.474182        -0.253386
 H         2.747915        -2.265800         1.537640
 H         4.623846         2.019168         1.208469
 H         3.858795         1.959300        -0.551982
 H         2.634193         0.721239         2.005878
