19
Iteration:  1960
 C         0.075240         0.882054        -0.220996
 C         1.481851         0.300403         0.022296
 C         2.460815        -0.011629        -1.260753
 C         3.293114        -0.411406         0.035320
 C         2.678689        -1.674235         0.624537
 O         1.314655        -1.053444         0.490689
 O         4.708684         0.104208         0.112184
 C         4.101533         1.453460         0.511337
 C         2.734495         0.734875         0.835023
 H        -0.518915         0.884024         0.742033
 H         0.179222         1.927471        -0.659688
 H        -0.413508         0.224512        -0.941718
 H         2.105879        -0.812886        -2.000612
 H         2.878163         0.796014        -1.757227
 H         2.732054        -2.548534        -0.055776
 H         2.861265        -1.805488         1.699782
 H         4.475567         2.033886         1.428259
 H         4.236741         2.099116        -0.363854
 H         2.472139         0.617096         1.799257
