19
Iteration:  4899charge 0 multiplicity 1
 C         0.055146         0.925846        -0.232319
 C         1.469532         0.302904        -0.013550
 C         2.480317         0.022245        -1.158120
 C         3.389297        -0.450047         0.013015
 C         2.698589        -1.665291         0.548132
 O         1.314360        -1.040001         0.625534
 O         4.618440         0.030659         0.037905
 C         4.090827         1.376214         0.437780
 C         2.727152         0.816379         0.891135
 H        -0.373234         0.788566         0.789192
 H         0.077309         2.036630        -0.271488
 H        -0.469449         0.407285        -1.177354
 H         1.934159        -0.720284        -1.900801
 H         2.983353         0.796431        -1.761763
 H         2.720182        -2.301682        -0.360114
 H         2.937371        -2.030803         1.552603
 H         4.635216         1.892090         1.212131
 H         4.227157         2.067451        -0.423926
 H         2.759353         0.781447         1.993786
