19
Iteration:  2366charge 0 multiplicity 1
 C         0.032322         0.820882        -0.249195
 C         1.398238         0.343080        -0.047235
 C         2.429114         0.004058        -1.204652
 C         3.372766        -0.370246         0.063071
 C         2.681296        -1.615616         0.519759
 O         1.347623        -0.968943         0.626256
 O         4.742359         0.048431         0.179474
 C         4.113985         1.387045         0.467010
 C         2.738312         0.721748         0.774549
 H        -0.405451         1.146399         0.653956
 H         0.060970         1.631927        -0.972517
 H        -0.545197        -0.012518        -0.703645
 H         1.865842        -0.828585        -1.747151
 H         2.786316         0.739179        -1.913927
 H         2.719577        -2.354082        -0.242474
 H         3.092815        -2.073806         1.456642
 H         4.611054         1.732087         1.386876
 H         3.967967         2.126596        -0.431129
 H         2.508283         0.644381         1.846543
