19
Iteration:  1225charge 0 multiplicity 1
 C         0.074911         0.900014        -0.275915
 C         1.456815         0.244079        -0.056613
 C         2.462182        -0.051976        -1.181465
 C         3.375713        -0.375627         0.067611
 C         2.781719        -1.716344         0.518931
 O         1.269798        -1.055924         0.558016
 O         4.694402         0.119048         0.084175
 C         4.096972         1.466030         0.533028
 C         2.675167         0.782289         0.870398
 H        -0.512260         0.780697         0.744261
 H         0.136877         1.994095        -0.506238
 H        -0.521910         0.339704        -1.129843
 H         2.318187        -0.932364        -1.861924
 H         2.867239         0.950543        -1.682868
 H         2.495576        -2.538657        -0.086892
 H         2.878777        -1.916372         1.639045
 H         4.599637         1.765930         1.423392
 H         4.098402         2.157801        -0.363063
 H         2.422115         0.916233         1.934026
