19
Iteration:   521
 C         0.227121         0.932601        -0.153623
 C         1.540451         0.188963        -0.089034
 C         2.558630         0.036594        -1.251915
 C         3.350820        -0.411981         0.019432
 C         2.688739        -1.724193         0.610047
 O         1.276550        -1.173965         0.479687
 O         4.628743         0.195270         0.113247
 C         3.922805         1.475141         0.522958
 C         2.665095         0.765543         0.885489
 H        -0.339965         0.787648         0.835909
 H         0.300596         2.045332        -0.396479
 H        -0.433789         0.510211        -1.004360
 H         2.229222        -0.796342        -1.969521
 H         2.911060         0.945930        -1.700693
 H         2.872254        -2.628567         0.027229
 H         2.829287        -1.871024         1.688241
 H         4.646285         2.069580         1.180170
 H         3.886404         2.132905        -0.470958
 H         2.456682         0.816489         1.899317
