19
Iteration:  1118
 C         0.140054         0.988735        -0.144083
 C         1.513331         0.298801        -0.078021
 C         2.552931        -0.069176        -1.200160
 C         3.379769        -0.386384         0.053094
 C         2.726129        -1.736679         0.605335
 O         1.214102        -1.113079         0.458928
 O         4.731681         0.234307         0.177285
 C         3.985520         1.450069         0.397978
 C         2.645081         0.636797         0.841999
 H        -0.288939         0.889792         0.844145
 H         0.338130         2.021974        -0.447162
 H        -0.492409         0.328307        -0.729667
 H         2.298476        -0.889115        -1.855291
 H         2.693749         0.789381        -1.909934
 H         2.910825        -2.676839        -0.046053
 H         2.855219        -1.805560         1.730306
 H         4.394153         2.104289         1.273490
 H         3.775122         1.986732        -0.594525
 H         2.360232         0.636406         1.937484
