19
Iteration:  4629charge 0 multiplicity 1
 C         0.151694         0.968236        -0.139781
 C         1.476488         0.210779        -0.065115
 C         2.467587        -0.045477        -1.250359
 C         3.335524        -0.425481        -0.007200
 C         2.688894        -1.645725         0.518219
 O         1.278013        -1.038703         0.592606
 O         4.656541         0.108239         0.114076
 C         4.110634         1.447983         0.428262
 C         2.673179         0.728175         0.876721
 H        -0.199239         0.913766         0.926508
 H         0.210195         1.940675        -0.668200
 H        -0.662808         0.371435        -0.617528
 H         2.230691        -0.740622        -2.080339
 H         2.888181         0.854271        -1.536565
 H         2.743382        -2.603718         0.034019
 H         2.921089        -1.683537         1.553841
 H         4.487503         1.885397         1.363015
 H         4.129250         2.025584        -0.471362
 H         2.737078         0.571441         1.955866
