19
Iteration:  4996charge 0 multiplicity 1
 C         0.070618         0.956778        -0.143015
 C         1.455480         0.302720        -0.011383
 C         2.507587        -0.036145        -1.185215
 C         3.337244        -0.376597         0.067762
 C         2.656277        -1.705026         0.528867
 O         1.262983        -1.135151         0.545233
 O         4.676860         0.125722         0.110645
 C         4.167220         1.429971         0.391858
 C         2.707041         0.767956         0.815474
 H        -0.071014         1.386239         0.839002
 H         0.152687         1.913612        -0.647380
 H        -0.744535         0.248788        -0.503711
 H         1.943894        -0.910492        -1.669326
 H         2.920577         0.723161        -1.859775
 H         2.756772        -2.410597        -0.299166
 H         2.915334        -1.953898         1.548160
 H         4.711494         1.770782         1.278846
 H         4.277564         2.143806        -0.538837
 H         2.568769         0.671215         1.883336
