19
Iteration:   904
 C        -0.015603         0.805779        -0.258705
 C         1.503254         0.273003        -0.021762
 C         2.467344         0.023258        -1.147739
 C         3.377712        -0.370224         0.087978
 C         2.661590        -1.663244         0.560332
 O         1.341406        -1.109328         0.462936
 O         4.698438         0.075559         0.119185
 C         4.085308         1.526349         0.485984
 C         2.694653         0.806301         0.860806
 H        -0.610644         0.599097         0.543034
 H         0.014285         1.925281        -0.238940
 H        -0.484055         0.461091        -1.198389
 H         2.359245        -0.837542        -1.772493
 H         2.758579         0.930854        -1.778601
 H         2.789941        -2.498037        -0.156569
 H         2.786451        -2.054887         1.620032
 H         4.666855         1.809155         1.447418
 H         4.224139         2.235544        -0.451834
 H         2.855244         0.664822         1.966357
