19
Iteration:  1589charge 0 multiplicity 1
 C         0.210177         1.045333        -0.250560
 C         1.482119         0.295047        -0.064191
 C         2.436608        -0.116941        -1.141279
 C         3.366872        -0.408670         0.051020
 C         2.744890        -1.712573         0.602685
 O         1.330617        -1.124017         0.478031
 O         4.649287         0.200603         0.136272
 C         3.958483         1.419939         0.443119
 C         2.638609         0.690496         0.884651
 H        -0.262290         0.873685         0.733308
 H         0.442569         2.171967        -0.426213
 H        -0.121583         0.596828        -1.191239
 H         1.968453        -0.948593        -1.658592
 H         2.858809         0.710242        -1.896491
 H         2.844680        -2.473946        -0.136300
 H         2.822366        -1.954540         1.691004
 H         4.532317         1.997792         1.231114
 H         3.933287         2.078658        -0.380927
 H         2.536201         0.678825         1.997408
