19
Iteration:  1604charge 0 multiplicity 1
 C         0.198178         0.951747        -0.250453
 C         1.559738         0.250188        -0.041161
 C         2.464513        -0.096011        -1.245829
 C         3.356307        -0.419737         0.064892
 C         2.653453        -1.604795         0.540595
 O         1.308137        -1.085008         0.558009
 O         4.683136         0.114993         0.143153
 C         3.961850         1.495890         0.511771
 C         2.696862         0.717276         0.844893
 H        -0.540203         0.897146         0.609182
 H         0.335562         2.011075        -0.427578
 H        -0.571406         0.620480        -1.027128
 H         2.348292        -0.941540        -1.925242
 H         2.724419         0.769261        -1.818892
 H         2.684593        -2.590866         0.035344
 H         3.047432        -1.826239         1.494007
 H         4.418631         1.982070         1.309967
 H         3.771643         2.160393        -0.410657
 H         2.522124         0.412623         1.945715
