19
Iteration:  1292
 C         0.098936         1.044840        -0.186295
 C         1.469734         0.290297        -0.039641
 C         2.545576        -0.105119        -1.185723
 C         3.378947        -0.433352         0.100493
 C         2.624510        -1.689187         0.593493
 O         1.341394        -1.172906         0.441201
 O         4.688289         0.155117         0.102012
 C         3.988304         1.500812         0.446284
 C         2.670467         0.702908         0.845850
 H        -0.204111         1.070468         0.914725
 H         0.315751         2.117096        -0.489542
 H        -0.640434         0.502918        -0.861914
 H         2.480457        -1.042798        -1.824729
 H         2.837525         0.857818        -1.642994
 H         2.996750        -2.455844        -0.089925
 H         2.891399        -1.896238         1.672807
 H         4.367679         2.072088         1.370753
 H         4.004163         2.070274        -0.508122
 H         2.445736         0.758651         1.966369
