19
Iteration:  1275
 C         0.231474         0.972903        -0.103574
 C         1.523443         0.224440        -0.144116
 C         2.531428        -0.021337        -1.170478
 C         3.350189        -0.432946         0.109268
 C         2.739987        -1.679275         0.621164
 O         1.273899        -1.128623         0.449112
 O         4.645916         0.167787         0.161533
 C         3.951957         1.431485         0.372273
 C         2.593535         0.781216         0.827929
 H        -0.329497         0.863313         0.774017
 H         0.483382         2.000754        -0.293806
 H        -0.389231         0.627031        -0.886948
 H         2.142169        -0.732197        -1.863025
 H         3.047030         0.765217        -1.666486
 H         2.760715        -2.510325        -0.142391
 H         2.928749        -1.825076         1.675851
 H         4.547241         1.772623         1.216327
 H         3.856022         1.990408        -0.552391
 H         2.458046         0.612279         1.914652
