19
Iteration:  4288
 C         0.047951         0.883461        -0.229395
 C         1.479850         0.230053        -0.013018
 C         2.457643         0.041490        -1.162151
 C         3.401890        -0.379636         0.034973
 C         2.638845        -1.648132         0.591789
 O         1.287977        -1.045000         0.651895
 O         4.709308         0.027716        -0.020352
 C         4.076676         1.426520         0.502745
 C         2.713795         0.806122         0.789717
 H        -0.491855         1.057793         0.709951
 H         0.154994         1.811412        -0.820322
 H        -0.555826         0.103698        -0.842699
 H         2.313282        -0.626016        -1.979502
 H         2.810129         0.885509        -1.627969
 H         2.547971        -2.567081        -0.018994
 H         3.073168        -1.795391         1.576034
 H         4.777191         1.681404         1.326903
 H         4.369301         2.165891        -0.316135
 H         2.532085         0.749126         1.810647
