19
Iteration:  1087charge 0 multiplicity 1
 C         0.162878         0.869627        -0.246732
 C         1.474100         0.281341        -0.009803
 C         2.464351        -0.007457        -1.190530
 C         3.350831        -0.358425         0.068444
 C         2.694881        -1.688436         0.595538
 O         1.329548        -1.094296         0.535527
 O         4.648437         0.183499         0.089792
 C         4.074144         1.445906         0.446390
 C         2.658299         0.658876         0.852112
 H        -0.635194         0.741387         0.507618
 H         0.347400         2.045494        -0.409057
 H        -0.244002         0.511485        -1.273845
 H         2.151496        -0.778955        -1.882219
 H         2.707912         0.923473        -1.746010
 H         2.967398        -2.653573        -0.026633
 H         2.971326        -1.899751         1.650558
 H         4.500789         1.861470         1.488941
 H         4.078743         2.221209        -0.347905
 H         2.242191         0.691844         1.946216
