19
Iteration:  4089charge 0 multiplicity 1
 C         0.191789         1.073249        -0.063356
 C         1.555578         0.247783        -0.114430
 C         2.467267        -0.170298        -1.209303
 C         3.398598        -0.430758         0.101529
 C         2.679552        -1.637111         0.651425
 O         1.300280        -1.080519         0.458555
 O         4.642315         0.061485         0.092359
 C         3.956447         1.448216         0.412802
 C         2.669286         0.773086         0.770261
 H        -0.174872         1.026134         0.960527
 H         0.353706         2.117252        -0.368785
 H        -0.597186         0.787510        -0.730576
 H         2.212465        -0.980106        -1.821687
 H         2.739403         0.825995        -1.589246
 H         2.834046        -2.568979        -0.007535
 H         3.017041        -1.864952         1.707218
 H         4.493429         2.039205         1.234246
 H         3.946564         2.036228        -0.539439
 H         2.360094         0.739665         1.844706
