19
Iteration:  4292
 C         0.045372         0.871305        -0.210675
 C         1.472195         0.213904        -0.028943
 C         2.474811        -0.000416        -1.168269
 C         3.353101        -0.378709         0.057659
 C         2.637095        -1.613468         0.589363
 O         1.278403        -1.026226         0.632759
 O         4.737117         0.032916        -0.040127
 C         4.093436         1.404253         0.501195
 C         2.718359         0.795686         0.819584
 H        -0.564049         1.167469         0.631485
 H         0.066810         1.752281        -0.810621
 H        -0.409126         0.100149        -0.765131
 H         2.341046        -0.724267        -2.001975
 H         2.697961         1.061458        -1.576927
 H         2.649832        -2.402812        -0.131342
 H         3.113590        -1.704206         1.549219
 H         4.656466         1.721872         1.383240
 H         4.394876         2.090475        -0.305478
 H         2.559070         0.825623         1.923853
