19
Iteration:  4080
 C         0.235429         1.071793        -0.059095
 C         1.456993         0.287674        -0.117800
 C         2.573497        -0.178901        -1.231286
 C         3.337579        -0.434902         0.076254
 C         2.674017        -1.572769         0.628102
 O         1.327220        -1.081798         0.504583
 O         4.679222         0.087215         0.095807
 C         3.934005         1.401781         0.382836
 C         2.596761         0.730730         0.821720
 H        -0.038185         1.025606         0.970934
 H         0.502575         2.119489        -0.116503
 H        -0.541895         0.631566        -0.681443
 H         2.353913        -1.003034        -1.923817
 H         2.933494         0.695357        -1.888427
 H         2.578853        -2.518869        -0.130578
 H         2.880643        -1.796287         1.793807
 H         4.509610         2.072806         1.148174
 H         3.840357         1.966419        -0.597524
 H         2.465450         0.562049         1.903783
