19
Iteration:  2351
 C         0.100917         0.822505        -0.221176
 C         1.562614         0.268736        -0.053406
 C         2.448591        -0.000513        -1.269265
 C         3.360096        -0.442215        -0.038403
 C         2.635562        -1.647711         0.521795
 O         1.315685        -1.013311         0.641275
 O         4.686329         0.075420         0.171710
 C         4.069581         1.400326         0.458198
 C         2.674695         0.858026         0.873645
 H        -0.276866         1.229599         0.747984
 H         0.073766         1.609866        -0.950443
 H        -0.602442         0.027152        -0.484959
 H         2.366691        -0.741455        -2.018465
 H         2.803514         1.060486        -1.567889
 H         2.449360        -2.586601        -0.093045
 H         2.901692        -1.864944         1.525283
 H         4.558496         1.999580         1.185307
 H         4.242293         1.968929        -0.464792
 H         2.516974         0.703720         1.957715
