19
Iteration:   323
 C        -0.025159         0.863570        -0.195800
 C         1.458592         0.331903        -0.050265
 C         2.497463        -0.026253        -1.191221
 C         3.306483        -0.385020         0.079861
 C         2.698980        -1.640078         0.533846
 O         1.386690        -1.176016         0.513569
 O         4.689201         0.127194         0.052390
 C         4.140783         1.427242         0.573066
 C         2.666757         0.859014         0.817051
 H        -0.730317         1.065677         0.680431
 H         0.013611         1.731952        -0.774052
 H        -0.488623         0.097500        -0.784873
 H         2.267848        -0.884845        -1.948098
 H         3.052002         0.799378        -1.790396
 H         2.714607        -2.494700        -0.086470
 H         3.155624        -1.900813         1.481796
 H         4.581312         1.465897         1.654864
 H         4.120252         2.373967        -0.003663
 H         2.463297         0.872878         1.811242
