19
Iteration:  2537
 C         0.068669         0.909451        -0.330445
 C         1.484334         0.300604        -0.097069
 C         2.425543        -0.068331        -1.215156
 C         3.288431        -0.395360         0.079509
 C         2.727901        -1.665228         0.630657
 O         1.318134        -1.075598         0.640467
 O         4.672902         0.073183        -0.024836
 C         4.175100         1.412124         0.608617
 C         2.701403         0.832166         0.816966
 H        -0.337314         1.407547         0.605866
 H         0.003067         1.774553        -0.922696
 H        -0.799841         0.240288        -0.659219
 H         2.026794        -0.865047        -1.856803
 H         2.892248         0.795275        -1.649913
 H         2.723146        -2.562341        -0.007605
 H         3.142636        -1.828394         1.612398
 H         4.736464         1.752332         1.429913
 H         4.146082         2.218554        -0.079949
 H         2.444166         0.708080         1.855689
