19
Iteration:  2096charge 0 multiplicity 1
 C         0.010009         0.833993        -0.203423
 C         1.442634         0.354730        -0.087349
 C         2.395433        -0.083515        -1.168351
 C         3.371031        -0.364538         0.050019
 C         2.730962        -1.613991         0.533536
 O         1.304033        -1.008650         0.529319
 O         4.727290         0.098793         0.139333
 C         4.131016         1.378741         0.540379
 C         2.711506         0.766675         0.775452
 H        -0.633811         0.595680         0.601448
 H        -0.030580         1.918861        -0.383833
 H        -0.439298         0.325619        -1.062044
 H         2.269528        -0.938068        -1.803015
 H         3.013700         0.623148        -1.806213
 H         2.628708        -2.530518        -0.054382
 H         3.015128        -1.706703         1.599907
 H         4.790582         1.872857         1.433186
 H         4.127177         2.249096        -0.251834
 H         2.535697         0.397177         1.842193
