19
Iteration:  4620
 C         0.084633         0.907831        -0.155756
 C         1.413724         0.274778        -0.103821
 C         2.430549        -0.019728        -1.195056
 C         3.333868        -0.405173         0.083349
 C         2.654182        -1.615236         0.554447
 O         1.293864        -1.090480         0.571710
 O         4.721265         0.094935         0.105111
 C         4.084974         1.408461         0.473609
 C         2.780003         0.770798         0.765603
 H        -0.219284         1.113780         0.891562
 H         0.185630         1.984990        -0.385287
 H        -0.544147         0.323530        -0.786633
 H         2.110362        -0.735959        -1.995264
 H         2.817413         0.857131        -1.641207
 H         2.765392        -2.447848        -0.095172
 H         3.005015        -1.939375         1.516167
 H         4.734443         1.861550         1.204998
 H         4.185064         2.021941        -0.355109
 H         2.621010         0.536104         1.844819
