19
Iteration:   930
 C         0.144202         0.856206        -0.294213
 C         1.545266         0.305391        -0.042186
 C         2.446768         0.042868        -1.209697
 C         3.346699        -0.386002         0.087743
 C         2.714416        -1.645658         0.548907
 O         1.319422        -1.161019         0.584977
 O         4.638318         0.180251         0.091145
 C         4.039502         1.391018         0.485775
 C         2.631745         0.774045         0.894606
 H        -0.665949         0.760005         0.553371
 H         0.345108         1.906276        -0.389192
 H        -0.361905         0.358637        -1.134594
 H         2.220583        -0.743124        -1.983847
 H         2.896030         0.861038        -1.732438
 H         2.851211        -2.445952        -0.271961
 H         3.004916        -1.962346         1.612784
 H         4.489906         1.652477         1.359420
 H         4.120101         2.053030        -0.307147
 H         2.639130         0.708943         1.924945
