19
Iteration:   671
 C         0.138607         1.046076        -0.257715
 C         1.460519         0.207490        -0.030200
 C         2.477151        -0.058743        -1.272804
 C         3.335465        -0.409156         0.041078
 C         2.769070        -1.688500         0.509618
 O         1.412845        -1.124210         0.559092
 O         4.656693         0.173388         0.140023
 C         3.919473         1.516601         0.563655
 C         2.663255         0.646746         0.856799
 H        -0.307497         1.293986         0.688148
 H         0.389693         1.954604        -0.731799
 H        -0.611637         0.480881        -0.771302
 H         2.263910        -0.866621        -2.017154
 H         2.905987         0.742650        -1.824432
 H         2.784062        -2.661723        -0.064908
 H         2.831427        -1.946166         1.568348
 H         4.462530         2.019253         1.436465
 H         3.791654         2.151759        -0.330572
 H         2.506278         0.426770         2.034530
