19
Iteration:  3103charge 0 multiplicity 1
 C         0.136841         0.821567        -0.225903
 C         1.505106         0.307194        -0.064153
 C         2.449916         0.009509        -1.214353
 C         3.358242        -0.456475        -0.084942
 C         2.596232        -1.600661         0.662289
 O         1.286422        -0.984768         0.639128
 O         4.755203         0.078705         0.034970
 C         4.073417         1.360504         0.507349
 C         2.705887         0.767346         0.835892
 H        -0.397611         0.641613         0.678865
 H        -0.046327         1.868462        -0.511849
 H        -0.421022         0.262557        -1.004912
 H         2.052785        -0.641504        -1.929973
 H         2.712769         1.018501        -1.535494
 H         2.468935        -2.409714         0.036624
 H         2.934689        -1.785428         1.669759
 H         4.640467         1.822322         1.287695
 H         4.276760         2.150247        -0.259645
 H         2.498041         0.571907         1.884866
