19
Iteration:  4293charge 0 multiplicity 1
 C         0.048673         0.866677        -0.207447
 C         1.467703         0.216271        -0.031860
 C         2.477764        -0.006753        -1.170074
 C         3.343658        -0.379421         0.059366
 C         2.637255        -1.603468         0.587815
 O         1.277843        -1.023771         0.629532
 O         4.740726         0.035209        -0.041550
 C         4.100491         1.400305         0.497491
 C         2.719153         0.793454         0.825050
 H        -0.578976         1.181698         0.642250
 H         0.059269         1.765091        -0.829931
 H        -0.403146         0.088981        -0.761568
 H         2.340166        -0.747671        -2.003293
 H         2.678700         1.075643        -1.561392
 H         2.671281        -2.402294        -0.158909
 H         3.119333        -1.713560         1.577009
 H         4.628090         1.724131         1.401436
 H         4.378324         2.075604        -0.297471
 H         2.561138         0.830438         1.956893
