19
Iteration:  2040charge 0 multiplicity 1
 C         0.143887         0.997539        -0.213858
 C         1.503432         0.260799         0.001623
 C         2.532647        -0.010414        -1.223982
 C         3.399124        -0.409375         0.122528
 C         2.688778        -1.681566         0.561697
 O         1.303933        -1.135337         0.511994
 O         4.684738         0.129285         0.133402
 C         3.937724         1.418232         0.407542
 C         2.677477         0.743436         0.820140
 H        -0.371457         1.199226         0.722681
 H         0.310075         1.975727        -0.592214
 H        -0.646266         0.502239        -0.841171
 H         2.307683        -0.792535        -1.914175
 H         2.731556         1.013147        -1.738282
 H         2.600132        -2.639636         0.080346
 H         3.049482        -1.950776         1.603385
 H         4.586068         1.840312         1.344493
 H         3.802367         2.100715        -0.510445
 H         2.506067         0.530916         1.907787
