19
Iteration:    70charge 0 multiplicity 1
 C         0.159171         0.886794        -0.145681
 C         1.519228         0.321827        -0.064058
 C         2.417123        -0.018319        -1.183411
 C         3.413179        -0.459868         0.066740
 C         2.710886        -1.645571         0.612842
 O         1.323473        -1.120697         0.419325
 O         4.647209         0.186296         0.085145
 C         3.994736         1.448814         0.449837
 C         2.689044         0.726485         0.893278
 H        -0.300988         0.742147         0.801976
 H         0.229057         1.956236        -0.387450
 H        -0.421867         0.375666        -0.903416
 H         2.109162        -0.821617        -1.976053
 H         2.781319         0.953496        -1.655469
 H         2.707203        -2.650496         0.039262
 H         2.799714        -1.935980         1.697056
 H         4.496793         2.004464         1.291186
 H         3.958666         2.070558        -0.359469
 H         2.560324         0.644448         1.918344
