19
Iteration:   182
 C         0.125036         0.836958        -0.238517
 C         1.475363         0.298846        -0.029737
 C         2.433230        -0.007867        -1.121602
 C         3.328485        -0.338045         0.003155
 C         2.720092        -1.617983         0.511789
 O         1.301867        -1.164498         0.568404
 O         4.676418         0.123433         0.037322
 C         4.131629         1.390998         0.579600
 C         2.640484         0.886074         0.803108
 H        -0.555457         0.500800         0.647341
 H        -0.048584         1.866540        -0.338369
 H        -0.205467         0.152616        -1.010638
 H         2.184806        -0.794053        -1.951161
 H         2.822231         0.984750        -1.636799
 H         2.755483        -2.533331        -0.231936
 H         3.033041        -1.853840         1.606158
 H         4.602809         1.643075         1.477772
 H         4.240044         2.183979        -0.163548
 H         2.554271         0.631543         1.910708
