19
Iteration:  1842
 C         0.215917         0.965026        -0.217666
 C         1.511580         0.272016        -0.013367
 C         2.545253         0.049941        -1.232455
 C         3.316477        -0.423172         0.042841
 C         2.668082        -1.688655         0.620421
 O         1.294041        -1.164864         0.527395
 O         4.652815         0.127063         0.092361
 C         3.968245         1.450801         0.478539
 C         2.654461         0.662443         0.817636
 H        -0.113791         1.338044         0.738525
 H         0.384318         1.744199        -0.835045
 H        -0.639363         0.437463        -0.560199
 H         2.450818        -0.682356        -2.090020
 H         2.865255         0.911000        -1.656806
 H         2.883079        -2.539109         0.007266
 H         2.902871        -1.776227         1.686550
 H         4.369846         2.063024         1.356342
 H         4.014347         2.223192        -0.304404
 H         2.458462         0.924535         1.885773
