19
Iteration:  2541
 C         0.054289         0.961450        -0.308156
 C         1.510915         0.250595        -0.097669
 C         2.448755        -0.050425        -1.196523
 C         3.269848        -0.411988         0.044614
 C         2.711436        -1.688931         0.649012
 O         1.349536        -1.050922         0.648775
 O         4.681001         0.083720        -0.002012
 C         4.154711         1.410911         0.564228
 C         2.659295         0.818499         0.813675
 H        -0.392191         1.305239         0.631476
 H         0.014862         1.877691        -1.057673
 H        -0.783023         0.353258        -0.676015
 H         2.055270        -0.894786        -1.869191
 H         2.885665         0.791301        -1.750455
 H         2.858411        -2.607602        -0.030945
 H         3.258552        -1.997144         1.631946
 H         4.709081         1.693073         1.479445
 H         4.148095         2.314483        -0.114808
 H         2.336091         0.667220         1.874469
