19
Iteration:    67
 C         0.142523         0.875222        -0.155936
 C         1.518546         0.290728        -0.051935
 C         2.383888        -0.018433        -1.210800
 C         3.428467        -0.466104         0.078127
 C         2.734492        -1.670787         0.601564
 O         1.305621        -1.069420         0.411993
 O         4.643799         0.181539         0.092873
 C         3.984628         1.459462         0.467722
 C         2.740092         0.711392         0.898347
 H        -0.382063         0.757488         0.737259
 H         0.166994         1.975223        -0.358692
 H        -0.327802         0.307321        -0.968973
 H         2.060424        -0.787572        -1.889456
 H         2.745198         0.890970        -1.624109
 H         2.714445        -2.608910         0.081020
 H         2.812023        -1.828488         1.664486
 H         4.537620         2.017110         1.300840
 H         3.979511         2.128036        -0.406296
 H         2.601782         0.686903         1.952922
