19
Iteration:  2056
 C         0.198017         0.868531        -0.182380
 C         1.455605         0.267893        -0.145023
 C         2.474236         0.027464        -1.163412
 C         3.319046        -0.430598         0.011402
 C         2.676859        -1.652673         0.604900
 O         1.305938        -1.072763         0.555702
 O         4.633140         0.124559         0.129596
 C         4.077255         1.458043         0.450366
 C         2.651187         0.721106         0.836388
 H        -0.230656         0.743055         0.837592
 H         0.284393         1.967238        -0.500521
 H        -0.284911         0.374250        -1.009847
 H         2.255407        -0.708745        -2.029300
 H         3.027687         0.849728        -1.436620
 H         2.831056        -2.523301        -0.096431
 H         2.892644        -1.869137         1.623466
 H         4.506799         1.875601         1.270701
 H         4.256009         2.089711        -0.426015
 H         2.492254         0.764355         1.952068
