19
Iteration:  2553
 C         0.085239         1.023091        -0.245841
 C         1.431960         0.282565        -0.076566
 C         2.481283        -0.085918        -1.207840
 C         3.404644        -0.442622         0.015636
 C         2.712645        -1.668882         0.614541
 O         1.386547        -1.053187         0.668461
 O         4.651663         0.143753         0.079851
 C         4.026421         1.374702         0.445942
 C         2.623478         0.730298         0.793190
 H        -0.280110         1.321633         0.730494
 H         0.432154         1.941354        -0.874176
 H        -0.504399         0.335580        -0.807004
 H         2.310790        -0.922284        -1.929510
 H         2.802563         0.840296        -1.767025
 H         2.615798        -2.555154        -0.089950
 H         2.909659        -1.932204         1.716680
 H         4.435775         1.603794         1.486839
 H         4.314296         2.158232        -0.310861
 H         2.451779         0.710586         1.901357
