19
Iteration:  3892charge 0 multiplicity 1
 C         0.184856         0.974920        -0.219400
 C         1.547383         0.304036        -0.077537
 C         2.418442        -0.086806        -1.170820
 C         3.389179        -0.464385         0.082921
 C         2.635254        -1.637265         0.590790
 O         1.323581        -1.052047         0.588858
 O         4.682975         0.109292         0.027489
 C         4.021045         1.414399         0.483362
 C         2.707703         0.750245         0.784277
 H        -0.311417         1.051910         0.738845
 H         0.295717         2.005629        -0.341872
 H        -0.486484         0.466659        -0.793011
 H         2.019187        -0.882509        -1.749720
 H         2.785644         0.660656        -1.835979
 H         2.559107        -2.423025        -0.138006
 H         2.840817        -2.182226         1.523032
 H         4.335052         1.800246         1.485817
 H         3.899968         2.323760        -0.174084
 H         2.406453         0.710240         1.833460
