19
Iteration:  3010
 C         0.147094         1.022261        -0.118557
 C         1.470963         0.303645        -0.022494
 C         2.431015        -0.067412        -1.240156
 C         3.422105        -0.469043         0.060331
 C         2.636527        -1.667439         0.614628
 O         1.298296        -1.091180         0.505251
 O         4.772855         0.145382         0.188050
 C         4.022019         1.446026         0.357923
 C         2.674308         0.679524         0.777673
 H        -0.235972         1.217473         0.915900
 H         0.169656         1.933992        -0.774561
 H        -0.594822         0.427701        -0.660040
 H         1.944985        -1.008383        -1.664998
 H         2.780869         0.655841        -1.949905
 H         2.658821        -2.442170        -0.169522
 H         2.962440        -1.921989         1.614808
 H         4.365405         2.077408         1.128146
 H         3.977895         2.057071        -0.452027
 H         2.479051         0.673037         1.866416
