19
Iteration:  2284charge 0 multiplicity 1
 C         0.279656         1.035895        -0.169687
 C         1.519054         0.206258        -0.110484
 C         2.462099        -0.095384        -1.245721
 C         3.330999        -0.450033         0.012226
 C         2.681031        -1.710944         0.645002
 O         1.287409        -1.107370         0.587552
 O         4.679973         0.169689         0.134668
 C         3.926014         1.462106         0.417673
 C         2.667324         0.728536         0.814570
 H        -0.316672         0.929064         0.777646
 H         0.515652         2.104375        -0.417312
 H        -0.362176         0.641944        -0.906090
 H         2.051605        -0.667163        -2.090328
 H         2.794607         0.834101        -1.694235
 H         2.869996        -2.604647        -0.030178
 H         2.976092        -1.840237         1.663476
 H         4.418536         1.915267         1.331831
 H         3.984396         2.259899        -0.368167
 H         2.482898         0.816129         1.912239
