19
Iteration:  4730charge 0 multiplicity 1
 C         0.012467         0.879377        -0.153223
 C         1.498936         0.358753        -0.012287
 C         2.431216        -0.068086        -1.237419
 C         3.294921        -0.418631        -0.057669
 C         2.613663        -1.570192         0.578300
 O         1.327836        -1.048239         0.574770
 O         4.763726         0.085185         0.136779
 C         4.111533         1.382142         0.430342
 C         2.727289         0.731969         0.834224
 H        -0.511500         0.634229         0.874698
 H         0.036723         2.041210        -0.361356
 H        -0.544928         0.443306        -0.994314
 H         2.222914        -0.741255        -2.065574
 H         2.889141         0.816056        -1.780610
 H         2.716631        -2.398555        -0.098247
 H         2.950862        -1.894386         1.581568
 H         4.739968         1.751279         1.324326
 H         4.287470         2.215183        -0.299866
 H         2.755537         0.507599         1.944927
