19
Iteration:  3346
 C         0.218008         1.118691        -0.143208
 C         1.451533         0.231473        -0.003316
 C         2.447674        -0.070329        -1.183701
 C         3.420762        -0.472694         0.093938
 C         2.702847        -1.704479         0.591152
 O         1.290294        -1.162146         0.496458
 O         4.645820         0.207637         0.076652
 C         3.984853         1.458833         0.389549
 C         2.690461         0.654991         0.843814
 H        -0.216325         1.532020         0.875937
 H         0.633190         1.962061        -0.870974
 H        -0.657823         0.712650        -0.783213
 H         2.251049        -0.891744        -1.888274
 H         2.815149         0.723321        -1.842092
 H         2.720969        -2.692620         0.034762
 H         2.986202        -1.925109         1.712023
 H         4.457481         2.103674         1.242037
 H         3.892669         1.948723        -0.554684
 H         2.433376         0.705585         1.943294
