19
Iteration:     1charge 0 multiplicity 1
 C         0.132970         0.896012        -0.159681
 C         1.489669         0.263365        -0.048651
 C         2.468013        -0.015822        -1.194054
 C         3.369627        -0.397818         0.041390
 C         2.690329        -1.659803         0.535539
 O         1.338137        -1.106465         0.504531
 O         4.665855         0.175490         0.117949
 C         4.012753         1.445109         0.482970
 C         2.677005         0.719535         0.840798
 H        -0.347480         0.943060         0.822361
 H         0.219648         1.912248        -0.554397
 H        -0.509549         0.314535        -0.827709
 H         2.188331        -0.803648        -1.895329
 H         2.826861         0.868492        -1.719140
 H         2.750579        -2.531735        -0.124315
 H         2.962779        -1.942589         1.556924
 H         4.515712         1.898321         1.340103
 H         4.004731         2.147181        -0.355869
 H         2.529757         0.592890         1.913971
