19
Iteration:  1987charge 0 multiplicity 1
 C         0.183482         0.977329        -0.189600
 C         1.491711         0.244591        -0.055386
 C         2.566727        -0.068045        -1.233009
 C         3.330408        -0.423502         0.061241
 C         2.629899        -1.641717         0.570800
 O         1.342453        -1.116347         0.571138
 O         4.713622         0.163040         0.091413
 C         3.981949         1.433763         0.474578
 C         2.600721         0.691943         0.814121
 H         0.056420         1.320862         0.823488
 H         0.307403         1.908818        -0.731176
 H        -0.728942         0.540697        -0.612047
 H         2.191520        -0.753915        -1.948902
 H         3.009936         0.927068        -1.632178
 H         2.637287        -2.462701        -0.151636
 H         2.976523        -1.906188         1.593760
 H         4.405145         1.977623         1.416337
 H         4.019171         2.088403        -0.473910
 H         2.101137         0.544160         1.898936
