19
Iteration:  4784charge 0 multiplicity 1
 C         0.186495         0.998832        -0.182882
 C         1.491900         0.345584        -0.038301
 C         2.440415         0.025045        -1.171791
 C         3.331436        -0.436845        -0.003173
 C         2.705206        -1.678716         0.553027
 O         1.260635        -1.083640         0.607250
 O         4.750845         0.105742         0.027860
 C         3.942449         1.384698         0.457552
 C         2.710168         0.618527         0.854898
 H        -0.275724         1.173995         0.854459
 H         0.206508         2.109256        -0.461766
 H        -0.431621         0.444237        -0.872628
 H         2.198947        -0.888531        -1.740360
 H         2.874072         0.859902        -1.811780
 H         2.917659        -2.638679         0.048027
 H         2.893025        -1.754895         1.638038
 H         4.572366         2.083289         1.183037
 H         3.941607         2.021198        -0.495400
 H         2.510505         0.655788         1.959843
