19
Iteration:  2226
 C         0.099798         0.776944        -0.203788
 C         1.490045         0.352830        -0.021334
 C         2.389357        -0.006870        -1.178973
 C         3.304582        -0.380916         0.047281
 C         2.574700        -1.625885         0.581644
 O         1.351527        -1.040523         0.493866
 O         4.743906         0.118034         0.141315
 C         4.161570         1.413664         0.414800
 C         2.707612         0.742419         0.838548
 H        -0.568706         0.743936         0.679405
 H         0.149397         1.864475        -0.647125
 H        -0.276406         0.148041        -1.126978
 H         1.817014        -0.870098        -1.599328
 H         2.665799         0.873907        -1.815754
 H         2.857521        -2.563613         0.004956
 H         2.784744        -1.904592         1.691083
 H         4.635036         1.821164         1.445846
 H         4.294515         2.040184        -0.388547
 H         2.673932         0.853196         1.951317
