19
Iteration:  4666
 C         0.184855         1.099473        -0.172663
 C         1.479527         0.294696        -0.035062
 C         2.378658        -0.159418        -1.159661
 C         3.389209        -0.406361         0.059472
 C         2.727117        -1.752872         0.571920
 O         1.282984        -1.130034         0.486695
 O         4.688280         0.182180         0.072548
 C         4.037920         1.503211         0.383578
 C         2.696991         0.631581         0.920495
 H         0.004814         1.522300         0.829356
 H         0.161652         2.133359        -0.592930
 H        -0.587344         0.487398        -0.584128
 H         2.032730        -0.797080        -1.966528
 H         2.879913         0.722384        -1.714388
 H         2.782351        -2.595377        -0.093630
 H         2.797267        -2.172137         1.585012
 H         4.526068         2.019811         1.211436
 H         4.044838         2.274607        -0.340899
 H         2.376171         0.551258         1.995748
