19
Iteration:   772charge 0 multiplicity 1
 C         0.036132         0.880611        -0.165223
 C         1.435099         0.245614        -0.122843
 C         2.507756        -0.078371        -1.184063
 C         3.345697        -0.364165         0.087129
 C         2.753681        -1.634916         0.482411
 O         1.323937        -1.088304         0.498704
 O         4.711827         0.170347         0.178104
 C         4.137583         1.405957         0.553819
 C         2.615294         0.808119         0.772024
 H        -0.570885         0.787648         0.669223
 H         0.062911         1.894707        -0.663386
 H        -0.512701         0.140065        -0.830001
 H         2.104211        -0.873950        -1.849048
 H         2.673899         0.959004        -1.589316
 H         2.643752        -2.443291        -0.310465
 H         3.067118        -1.969273         1.550203
 H         4.490918         1.783065         1.551252
 H         4.212241         2.107195        -0.291456
 H         2.574320         0.660720         1.951622
