19
Iteration:  2034charge 0 multiplicity 1
 C         0.130081         1.030996        -0.175724
 C         1.443723         0.278556        -0.034449
 C         2.482607        -0.023508        -1.225719
 C         3.406114        -0.400895         0.094676
 C         2.664298        -1.704229         0.571691
 O         1.333274        -1.157477         0.500395
 O         4.743929         0.156735         0.142439
 C         3.924672         1.407068         0.436026
 C         2.683845         0.747922         0.852104
 H        -0.373144         1.358190         0.756436
 H         0.414955         1.961684        -0.804818
 H        -0.454419         0.483121        -0.899932
 H         2.379072        -0.970984        -1.836524
 H         2.833510         0.797031        -1.788844
 H         2.675151        -2.647731        -0.060279
 H         2.911974        -1.925791         1.596467
 H         4.483303         1.911022         1.127632
 H         3.740759         1.983889        -0.454328
 H         2.619605         0.538933         1.955891
