19
Iteration:  4087charge 0 multiplicity 1
 C         0.197844         1.073688        -0.064190
 C         1.541957         0.256979        -0.115977
 C         2.491498        -0.181368        -1.221037
 C         3.402424        -0.431187         0.102919
 C         2.682428        -1.628516         0.652551
 O         1.307750        -1.080187         0.461931
 O         4.641013         0.057190         0.088075
 C         3.950497         1.443806         0.413580
 C         2.651765         0.770093         0.780089
 H        -0.142180         1.043406         1.011913
 H         0.383992         2.148215        -0.295978
 H        -0.590359         0.753548        -0.732548
 H         2.246362        -1.016179        -1.831490
 H         2.725759         0.812997        -1.553871
 H         2.748164        -2.436818        -0.010808
 H         2.988687        -1.803686         1.632860
 H         4.450184         2.042894         1.157804
 H         3.915495         1.996283        -0.516678
 H         2.361939         0.688247         1.854453
