19
Iteration:  1236charge 0 multiplicity 1
 C         0.168335        -0.818683         0.553986
 C         1.435035        -0.201690         0.162697
 C         2.031105         0.086764        -1.222398
 C         3.341978         0.436240        -0.382627
 C         4.575078        -0.427419        -0.876365
 O         3.836659        -1.556750        -0.185945
 C         2.819159        -0.651387         0.521232
 C         2.875065         1.744830         0.178058
 O         1.635359         1.183528         0.845810
 H         0.182375        -1.888707         0.653618
 H        -0.067836        -0.440083         1.563747
 H        -0.659011        -0.449527        -0.090031
 H         2.295530        -0.739553        -2.027973
 H         1.592433         0.896571        -1.749446
 H         4.392439        -0.404518        -1.964380
 H         5.567448        -0.169732        -0.541277
 H         3.221390        -0.516781         1.562257
 H         3.414320         2.227554         0.969155
 H         2.717129         2.613336        -0.571171
