19
Iteration:  4111
 C         0.117400        -0.704115         0.304492
 C         1.480576        -0.066659         0.378445
 C         1.986108         1.005974        -0.518463
 C         3.430151         0.487681        -0.165531
 C         4.192314         0.025860        -1.352942
 O         3.239194        -1.086503        -1.595528
 C         2.788836        -0.950908        -0.225095
 C         3.400145         0.908091         1.224880
 O         2.128786         0.319143         1.614178
 H        -0.187320        -1.013393        -0.735913
 H         0.087084        -1.657424         0.966676
 H        -0.667926        -0.048886         0.808412
 H         1.591617         0.792791        -1.589863
 H         1.641036         1.954429        -0.366255
 H         4.252180         0.732878        -2.279537
 H         5.205836        -0.371683        -1.148743
 H         3.063469        -1.815328         0.489758
 H         4.159650         0.442434         1.925377
 H         3.377280         1.966893         1.438053
