19
Iteration:  3263
 C         0.095324        -0.645806         0.527597
 C         1.479333        -0.187101         0.218923
 C         1.962449         0.839226        -0.730712
 C         3.363965         0.451012        -0.190155
 C         4.239060         0.041206        -1.272418
 O         3.437092        -1.276713        -1.500620
 C         2.818356        -1.039241        -0.081459
 C         3.305176         1.174646         1.118920
 O         2.024875         0.520142         1.507877
 H        -0.072333        -0.356924         1.596008
 H        -0.641744        -0.125936        -0.233717
 H        -0.049646        -1.766488         0.443303
 H         1.798026         0.584593        -1.691083
 H         1.602185         1.822788        -0.454919
 H         4.503701         0.662990        -2.112506
 H         5.168709        -0.400576        -0.931554
 H         3.068930        -1.854854         0.624074
 H         4.054649         0.700059         1.835617
 H         3.169884         2.403560         1.270066
