19
Iteration:  1741
 C         0.094134        -0.746523         0.550683
 C         1.510718        -0.270306         0.215548
 C         1.953903         0.236252        -1.222349
 C         3.294274         0.592650        -0.437821
 C         4.471308        -0.302840        -1.068234
 O         3.646841        -1.537430        -0.602476
 C         2.983820        -0.749643         0.353165
 C         3.072172         1.586966         0.672940
 O         1.700565         1.062124         1.125566
 H        -0.301655        -0.638303         1.625705
 H        -0.568634        -0.123315        -0.090508
 H        -0.018260        -1.765843         0.141546
 H         2.197341        -0.649596        -1.889866
 H         1.358418         0.918790        -1.761232
 H         4.593490        -0.437068        -2.150585
 H         5.421278        -0.253506        -0.560105
 H         3.471685        -0.719764         1.303306
 H         3.958102         1.716596         1.360272
 H         2.918875         2.581084         0.455697
