19
Iteration:  1799charge 0 multiplicity 1
 C         0.143884        -0.869161         0.581438
 C         1.489066        -0.143389         0.144838
 C         1.895623         0.393101        -1.137790
 C         3.349152         0.556531        -0.443885
 C         4.449107        -0.378683        -0.996079
 O         3.676502        -1.536332        -0.670595
 C         2.892387        -0.746741         0.366503
 C         3.065959         1.573958         0.649303
 O         1.744922         1.066827         1.060507
 H        -0.741513        -0.289785         0.745310
 H        -0.051951        -1.658353        -0.151309
 H         0.311044        -1.383646         1.546770
 H         1.851941        -0.363888        -1.869456
 H         1.433283         1.398145        -1.471867
 H         4.639276        -0.423159        -2.078810
 H         5.424307        -0.227982        -0.420174
 H         3.335385        -0.974698         1.367725
 H         3.848517         1.481666         1.419195
 H         2.939241         2.513267         0.264514
