19
Iteration:  3203charge 0 multiplicity 1
 C         0.218712        -0.757311         0.449322
 C         1.485864        -0.090825         0.217144
 C         1.911828         1.012778        -0.781021
 C         3.345738         0.544658        -0.248490
 C         4.211986        -0.120200        -1.290316
 O         3.431234        -1.318735        -1.305317
 C         2.737268        -0.919360        -0.094670
 C         3.314131         1.068714         1.096521
 O         2.038138         0.499574         1.551827
 H         0.062253        -1.221602         1.423937
 H        -0.558193        -0.064545         0.367350
 H         0.163244        -1.479295        -0.372895
 H         1.685583         0.913722        -1.963718
 H         1.473073         1.948099        -0.430938
 H         4.315265         0.456109        -2.238736
 H         5.194460        -0.478241        -0.946531
 H         3.080165        -1.553936         0.726940
 H         4.182111         0.711126         1.702264
 H         3.341277         2.185881         1.166005
