19
Iteration:  2872charge 0 multiplicity 1
 C         0.157412        -0.822118         0.434344
 C         1.476654        -0.121549         0.241754
 C         1.947456         0.878751        -0.823757
 C         3.368135         0.559313        -0.305943
 C         4.324944        -0.157716        -1.232076
 O         3.451541        -1.377926        -1.210066
 C         2.769796        -0.978329         0.002913
 C         3.269652         1.229610         1.036890
 O         1.967549         0.704879         1.449531
 H         0.510918        -1.729719         0.921648
 H        -0.542815        -0.142928         1.096198
 H        -0.402460        -1.204159        -0.450181
 H         1.632265         0.446759        -1.831644
 H         1.577940         1.852758        -0.676819
 H         4.343991         0.232550        -2.260655
 H         5.323777        -0.364748        -0.920624
 H         3.111752        -1.562503         0.812017
 H         4.044463         1.020292         1.773281
 H         3.082731         2.342971         1.015126
