19
Iteration:  4711
 C         0.183859        -0.748451         0.437977
 C         1.539951        -0.137055         0.318139
 C         1.973421         1.020617        -0.560602
 C         3.404681         0.489379        -0.248669
 C         4.207901        -0.007426        -1.336293
 O         3.220117        -1.038517        -1.601052
 C         2.762690        -0.863901        -0.171026
 C         3.420972         0.821436         1.252319
 O         2.027362         0.374175         1.554953
 H        -0.092854        -1.070005        -0.622492
 H         0.176115        -1.599492         1.271316
 H        -0.536285         0.188222         0.596898
 H         1.802883         0.874113        -1.668368
 H         1.814124         1.935842        -0.073059
 H         4.343170         0.751076        -2.134419
 H         5.097599        -0.535694        -1.226781
 H         3.170789        -1.781595         0.336855
 H         4.013738         0.265985         1.942333
 H         3.479266         1.883883         1.564624
