19
Iteration:  2885charge 0 multiplicity 1
 C         0.073313        -0.848276         0.445752
 C         1.500441        -0.133879         0.259886
 C         1.924625         0.826446        -0.818297
 C         3.335849         0.542357        -0.290243
 C         4.261007        -0.157505        -1.222050
 O         3.451006        -1.374030        -1.283574
 C         2.881512        -0.895224         0.095715
 C         3.312496         1.252981         1.008394
 O         1.978679         0.671832         1.430576
 H        -0.029489        -1.509562         1.288563
 H        -0.865170        -0.162687         0.643361
 H        -0.045224        -1.261466        -0.583259
 H         1.809840         0.731885        -2.010621
 H         1.616521         1.910238        -0.517914
 H         4.496675         0.307315        -2.217590
 H         5.170315        -0.374172        -0.633308
 H         3.220757        -1.498959         0.889079
 H         4.085116         0.887811         1.639851
 H         3.350648         2.336266         0.958006
