19
Iteration:  3308
 C         0.186831        -0.679917         0.430019
 C         1.525857        -0.081346         0.268819
 C         1.883318         0.942132        -0.820608
 C         3.332290         0.694096        -0.313627
 C         4.192899        -0.125976        -1.302062
 O         3.360565        -1.319911        -1.370313
 C         2.871836        -0.851500        -0.076326
 C         3.370716         0.979914         1.230667
 O         1.971476         0.438157         1.557391
 H        -0.256657        -0.360603         1.392612
 H        -0.404566        -0.750311        -0.598617
 H         0.455328        -1.738298         0.587104
 H         1.803511         0.473597        -1.749401
 H         1.412540         1.894678        -0.712562
 H         4.289142         0.236724        -2.350331
 H         5.216634        -0.266569        -0.945054
 H         3.357586        -1.399281         0.749999
 H         4.229105         0.449703         1.709060
 H         3.369515         2.215547         1.479278
