19
Iteration:  3291charge 0 multiplicity 1
 C         0.115454        -0.728376         0.488108
 C         1.474458        -0.110647         0.253170
 C         1.917723         0.969400        -0.763474
 C         3.370491         0.569057        -0.309922
 C         4.306345        -0.066931        -1.387338
 O         3.400430        -1.280084        -1.309058
 C         2.825415        -0.829587        -0.059267
 C         3.281203         1.055102         1.142658
 O         2.040676         0.392204         1.524446
 H        -0.295566        -0.312566         1.409393
 H        -0.500541        -0.318842        -0.224634
 H         0.043618        -1.837624         0.553084
 H         1.589662         0.553476        -1.839855
 H         1.636317         2.053495        -0.662680
 H         4.494294         0.358474        -2.394088
 H         5.299640        -0.465715        -1.041261
 H         3.102948        -1.478604         0.784158
 H         4.021454         0.527359         1.741910
 H         3.214867         2.003952         1.417600
