19
Iteration:   171
 C         0.161037        -0.749458         0.702317
 C         1.458754        -0.244397         0.133549
 C         2.218817        -0.540696        -1.106584
 C         3.358791         0.349598        -0.553027
 C         4.665922        -0.428289        -0.468018
 O         4.041130        -1.183931         0.775320
 C         2.964450        -0.232979         0.827291
 C         2.585494         1.657628        -0.712982
 O         1.314185         1.190853        -0.020026
 H         0.137679        -0.608323         1.826438
 H        -0.709539        -0.266951         0.275606
 H         0.028055        -1.812194         0.466242
 H         2.566124        -1.573760        -1.214189
 H         1.721377        -0.242137        -2.083184
 H         4.842875        -1.117500        -1.346657
 H         5.564792         0.048832        -0.119113
 H         2.845043         0.285153         1.850130
 H         3.004176         2.640707        -0.174297
 H         2.512045         1.997570        -1.856216
