19
Iteration:  1748
 C         0.094217        -0.767029         0.530149
 C         1.547879        -0.198436         0.207218
 C         1.953075         0.276158        -1.165754
 C         3.313292         0.543862        -0.451043
 C         4.482135        -0.332465        -1.092484
 O         3.658641        -1.531949        -0.571574
 C         2.922649        -0.709511         0.350684
 C         3.004825         1.609674         0.664133
 O         1.760681         0.988251         1.091472
 H        -0.165939        -0.480129         1.539243
 H        -0.625300        -0.299136        -0.162111
 H        -0.109173        -1.869747         0.560777
 H         2.204120        -0.521671        -1.874887
 H         1.442850         1.139134        -1.644746
 H         4.519659        -0.221713        -2.194953
 H         5.419455        -0.333319        -0.532682
 H         3.331825        -0.932955         1.371205
 H         3.822707         1.605034         1.372501
 H         2.790750         2.727187         0.301142
