19
Iteration:  4038charge 0 multiplicity 1
 C         0.123191        -0.641195         0.484075
 C         1.512334        -0.154088         0.319485
 C         1.925698         1.024263        -0.597820
 C         3.364005         0.404780        -0.169089
 C         4.340690         0.049330        -1.306334
 O         3.281870        -1.035275        -1.689927
 C         2.740073        -0.937206        -0.265259
 C         3.295691         0.890444         1.252030
 O         2.125988         0.263769         1.620317
 H        -0.086383        -1.426225        -0.207623
 H         0.062308        -1.099753         1.436257
 H        -0.626653         0.143483         0.467301
 H         1.580762         0.847968        -1.683317
 H         1.807665         2.260672        -0.547375
 H         4.480442         0.834779        -1.984548
 H         5.303181        -0.417446        -1.066692
 H         2.985814        -1.766487         0.431375
 H         4.141447         0.505633         1.886328
 H         3.359625         1.995206         1.327633
