19
Iteration:   465charge 0 multiplicity 1
 C         0.080280        -0.870318         0.664246
 C         1.483881        -0.243021         0.171183
 C         2.145151        -0.494044        -1.180230
 C         3.282636         0.325431        -0.555512
 C         4.646777        -0.372267        -0.535762
 O         3.942140        -1.334682         0.453238
 C         2.934434        -0.243126         0.763312
 C         2.739372         1.719122        -0.456943
 O         1.469135         1.309166         0.215281
 H        -0.373182        -1.589205        -0.091980
 H         0.344505        -1.548823         1.586179
 H        -0.668993        -0.117537         1.058217
 H         2.333137        -1.599128        -1.296715
 H         1.620674        -0.008889        -2.047781
 H         5.027587        -0.584085        -1.584712
 H         5.414416         0.125336         0.126966
 H         3.139997         0.211818         1.789132
 H         3.285568         2.452215         0.285062
 H         2.700988         2.401007        -1.391164
