19
Iteration:  2112charge 0 multiplicity 1
 C         0.178768        -0.845363         0.506548
 C         1.445660        -0.198172         0.143363
 C         1.962811         0.620808        -1.046360
 C         3.334018         0.470928        -0.331875
 C         4.342604        -0.252180        -1.122049
 O         3.651359        -1.547772        -0.857370
 C         2.881681        -0.869186         0.229092
 C         3.128099         1.438484         0.820363
 O         1.789323         1.036767         1.229730
 H        -0.507184        -0.854755        -0.286372
 H         0.349102        -1.791995         1.011666
 H        -0.250242        -0.202768         1.273326
 H         2.100512         0.051605        -1.959475
 H         1.468833         1.666054        -1.293989
 H         4.229199        -0.044499        -2.228287
 H         5.388600        -0.349940        -0.799804
 H         3.211301        -1.289996         1.277571
 H         3.827997         1.238345         1.614591
 H         3.003217         2.550127         0.607151
