19
Iteration:  2013charge 0 multiplicity 1
 C         0.170217        -0.804817         0.525848
 C         1.477556        -0.130242         0.265420
 C         1.895509         0.509519        -1.087035
 C         3.258601         0.457755        -0.347621
 C         4.388939        -0.246109        -1.103737
 O         3.732404        -1.592513        -0.835661
 C         2.899202        -0.879136         0.344892
 C         3.136593         1.493660         0.740925
 O         1.731376         1.053484         1.159822
 H        -0.414951        -0.359345         1.343853
 H        -0.355921        -0.623718        -0.388344
 H         0.239677        -1.867075         0.591564
 H         1.724478        -0.038166        -1.981068
 H         1.489634         1.573321        -1.291732
 H         4.434400        -0.000569        -2.216406
 H         5.454295        -0.177145        -0.777135
 H         3.318497        -1.407958         1.244966
 H         3.899690         1.347186         1.387515
 H         3.225216         2.549715         0.404661
