19
Iteration:  4257charge 0 multiplicity 1
 C         0.154696        -0.731584         0.312443
 C         1.547213        -0.096939         0.297876
 C         1.988355         1.001347        -0.564119
 C         3.433842         0.443363        -0.153707
 C         4.210201         0.002067        -1.353422
 O         3.180507        -0.994295        -1.607625
 C         2.747038        -0.955708        -0.178370
 C         3.401326         0.925571         1.241557
 O         2.103701         0.308366         1.664161
 H         0.112843        -1.541597        -0.366767
 H        -0.169839        -1.159086         1.253448
 H        -0.694349        -0.037101         0.107576
 H         1.769600         0.907030        -1.578137
 H         1.679265         2.063896        -0.130369
 H         4.267041         0.721871        -2.175761
 H         5.210437        -0.506487        -1.181129
 H         3.037115        -1.839811         0.424180
 H         4.246354         0.508167         1.838911
 H         3.355803         1.977046         1.233342
