19
Iteration:  2051
 C         0.228436        -0.666120         0.571961
 C         1.551752        -0.175456         0.159353
 C         1.937385         0.472472        -1.207202
 C         3.346149         0.595592        -0.360089
 C         4.418861        -0.337097        -1.095375
 O         3.562113        -1.508751        -0.828681
 C         2.908959        -0.822632         0.296712
 C         2.978269         1.574356         0.791263
 O         1.833423         0.762219         1.224722
 H        -0.446117         0.202199         0.770910
 H        -0.287418        -1.210999        -0.290943
 H         0.258397        -1.248356         1.549779
 H         2.176565        -0.164775        -2.112590
 H         1.510702         1.395878        -1.413959
 H         4.411907        -0.208245        -2.155427
 H         5.418672        -0.398587        -0.630200
 H         3.105815        -1.079079         1.304991
 H         3.758099         1.611943         1.688391
 H         2.485351         2.524382         0.635482
