19
Iteration:  3938
 C         0.174722        -0.706874         0.352656
 C         1.537764        -0.125802         0.280435
 C         1.896944         1.050348        -0.569061
 C         3.376439         0.541490        -0.197072
 C         4.221369        -0.008685        -1.390327
 O         3.236183        -1.107177        -1.524107
 C         2.780438        -0.970249        -0.171824
 C         3.482602         0.908958         1.267408
 O         2.055931         0.338510         1.601771
 H        -0.244146        -0.629025        -0.590758
 H         0.189075        -1.769914         0.604543
 H        -0.559955        -0.181270         0.958110
 H         1.553661         1.010580        -1.707763
 H         1.508676         2.101731        -0.135141
 H         4.272371         0.641396        -2.253899
 H         5.238416        -0.385569        -1.119787
 H         3.097379        -1.838145         0.434071
 H         4.348021         0.290915         1.722268
 H         3.432966         1.962209         1.536238
