19
Iteration:  2382
 C         0.131071        -0.711701         0.479855
 C         1.479642        -0.191809         0.194210
 C         1.907139         0.610928        -1.022188
 C         3.340004         0.594219        -0.352257
 C         4.387845        -0.254167        -1.177701
 O         3.490692        -1.376472        -0.994291
 C         2.912095        -0.839100         0.205942
 C         3.155269         1.346732         0.875201
 O         1.961985         0.723221         1.362572
 H        -0.588957        -0.349470        -0.375567
 H        -0.119812        -1.850505         0.608914
 H        -0.272414        -0.232177         1.422195
 H         1.812913        -0.045942        -1.855079
 H         1.396507         1.497984        -1.280572
 H         4.518583        -0.146595        -2.293991
 H         5.382606        -0.476675        -0.664002
 H         3.145567        -1.283666         1.177541
 H         3.968014         1.416819         1.648298
 H         2.918148         2.438832         0.845949
