19
Iteration:  1899
 C         0.200416        -0.729720         0.517126
 C         1.526661        -0.123834         0.230407
 C         1.828851         0.295381        -1.219355
 C         3.312017         0.599182        -0.469421
 C         4.462712        -0.269020        -1.045751
 O         3.627173        -1.557689        -0.704854
 C         2.909761        -0.713101         0.296642
 C         3.111406         1.472119         0.756657
 O         1.758686         0.972776         1.180464
 H         0.076061        -1.717788         0.181697
 H        -0.046596        -0.653975         1.590567
 H        -0.542934        -0.028437         0.098681
 H         1.911994        -0.625168        -1.905057
 H         1.145288         1.072174        -1.605515
 H         4.663501        -0.213476        -2.110614
 H         5.452979        -0.416948        -0.591567
 H         3.393356        -1.082359         1.252493
 H         3.816809         1.349647         1.568529
 H         2.889469         2.487307         0.680430
