19
Iteration:   713charge 0 multiplicity 1
 C         0.298494        -0.830475         0.718044
 C         1.546639        -0.276402         0.141579
 C         2.089842        -0.137202        -1.298573
 C         3.334263         0.429477        -0.440876
 C         4.585391        -0.528790        -0.557162
 O         3.871101        -1.447230         0.235306
 C         2.913143        -0.455268         0.715599
 C         2.726772         1.768514        -0.244249
 O         1.431562         1.298788         0.337474
 H         0.410947        -1.495903         1.594486
 H        -0.429059        -0.000143         0.893906
 H        -0.076264        -1.490604        -0.099988
 H         2.178416        -1.145153        -1.841697
 H         1.357753         0.427377        -2.024373
 H         4.657971        -0.907137        -1.592707
 H         5.591391        -0.279458        -0.049027
 H         3.104273        -0.089884         1.734397
 H         3.016002         2.582639         0.571261
 H         2.568427         2.327731        -1.188410
