19
Iteration:  4763
 C         0.087712        -0.532424         0.503698
 C         1.515230        -0.121717         0.272045
 C         1.897942         1.024924        -0.626787
 C         3.321366         0.516368        -0.268959
 C         4.246459         0.099984        -1.362246
 O         3.349098        -1.115467        -1.520828
 C         2.841773        -0.941922        -0.167829
 C         3.383102         0.834079         1.247291
 O         2.092901         0.187051         1.541392
 H        -0.501736        -0.509690        -0.431482
 H         0.048298        -1.614732         0.779615
 H        -0.361623        -0.034554         1.350659
 H         1.741473         0.817923        -1.739656
 H         1.550524         2.080564        -0.263689
 H         4.197325         0.646998        -2.330579
 H         5.297165        -0.384269        -1.162022
 H         3.191257        -1.702964         0.427843
 H         4.096416         0.301669         1.898410
 H         3.303686         1.872412         1.527287
