19
Iteration:  3101charge 0 multiplicity 1
 C         0.076172        -0.697455         0.571047
 C         1.445989        -0.130294         0.260417
 C         1.873370         0.913674        -0.748860
 C         3.361655         0.534802        -0.307577
 C         4.358859        -0.092452        -1.268153
 O         3.500900        -1.390022        -1.350964
 C         2.827651        -0.862997        -0.109499
 C         3.265779         1.134030         1.083304
 O         1.998079         0.512660         1.465349
 H        -0.111603        -1.405028        -0.163178
 H         0.046839        -1.092790         1.588760
 H        -0.657671         0.047364         0.538837
 H         1.707991         0.535821        -1.910036
 H         1.527083         2.039527        -0.700258
 H         4.616303         0.328070        -2.278179
 H         5.324341        -0.318517        -0.740440
 H         3.062004        -1.556952         0.718539
 H         3.973643         0.845608         1.841410
 H         3.171632         2.192920         1.060315
