19
Iteration:  4191charge 0 multiplicity 1
 C         0.003461        -0.675491         0.500834
 C         1.393733        -0.160979         0.221695
 C         1.934110         1.018171        -0.592045
 C         3.349859         0.524288        -0.215365
 C         4.258033         0.093399        -1.344810
 O         3.412514        -1.136144        -1.564466
 C         2.726947        -0.935297        -0.280371
 C         3.466811         0.793976         1.244183
 O         2.119438         0.400384         1.598909
 H        -0.390802        -0.762890        -0.455424
 H         0.256001        -1.622254         0.884715
 H        -0.570103        -0.074143         1.215730
 H         1.836380         0.809851        -1.608567
 H         1.646549         2.073746        -0.164013
 H         4.315554         0.739580        -2.203729
 H         5.241053        -0.205554        -0.955722
 H         2.971839        -1.855617         0.548966
 H         4.148619         0.134585         1.834555
 H         3.593927         1.814089         1.491388
