19
Iteration:  1446
 C         0.075333        -0.803600         0.528327
 C         1.444434        -0.153785         0.167238
 C         2.024671         0.134968        -1.170899
 C         3.284294         0.509037        -0.436661
 C         4.508323        -0.324727        -0.928011
 O         3.761769        -1.593659        -0.435046
 C         2.997765        -0.716334         0.485877
 C         2.940100         1.644466         0.416139
 O         1.665386         1.168103         0.934875
 H         0.328121        -1.735843         0.955178
 H        -0.371395        -0.178726         1.280227
 H        -0.664948        -0.841776        -0.281893
 H         2.126997        -0.722317        -1.782831
 H         1.514936         1.041431        -1.690422
 H         4.741702        -0.320582        -1.994462
 H         5.388967        -0.261051        -0.255779
 H         3.495761        -0.822627         1.484512
 H         3.651614         1.685561         1.266479
 H         2.809050         2.668933        -0.154643
