19
Iteration:  1279charge 0 multiplicity 1
 C         0.127471        -0.791402         0.574129
 C         1.517049        -0.234731         0.211563
 C         1.923141         0.070632        -1.218993
 C         3.321271         0.478738        -0.528600
 C         4.576502        -0.346533        -0.759371
 O         3.798055        -1.576982        -0.294807
 C         2.922132        -0.544469         0.481730
 C         2.893477         1.628694         0.325421
 O         1.646111         1.174997         0.770840
 H         0.069660        -0.946841         1.623765
 H        -0.504323         0.068716         0.383327
 H        -0.059953        -1.559964        -0.142500
 H         1.914366        -0.962886        -1.765613
 H         1.360733         0.780847        -1.763504
 H         4.786838        -0.628073        -1.803430
 H         5.383157        -0.227223        -0.101238
 H         3.277990        -0.543296         1.510825
 H         3.676264         1.872874         1.054443
 H         2.773109         2.631423        -0.076401
