19
Iteration:  3582charge 0 multiplicity 1
 C         0.072394        -0.624474         0.427639
 C         1.511208        -0.218095         0.280934
 C         1.934907         0.926919        -0.621288
 C         3.340630         0.465629        -0.223651
 C         4.253528         0.032158        -1.259955
 O         3.337908        -1.056856        -1.598071
 C         2.780692        -1.012107        -0.141322
 C         3.394603         0.981793         1.156399
 O         2.091853         0.344739         1.634338
 H        -0.202093        -0.608590         1.494742
 H        -0.466926         0.053690        -0.212122
 H        -0.106182        -1.607740         0.088563
 H         1.531440         0.925276        -1.730919
 H         1.739631         1.945952        -0.271379
 H         4.266985         0.679515        -2.205099
 H         5.253444        -0.384467        -1.002935
 H         3.306638        -1.850960         0.342553
 H         4.315310         0.682275         1.853397
 H         3.185781         2.107154         1.193631
