19
Iteration:   197
 C         0.207074        -0.818540         0.665945
 C         1.479616        -0.240156         0.164808
 C         2.182531        -0.678522        -1.092608
 C         3.298523         0.298995        -0.549771
 C         4.602326        -0.350909        -0.457364
 O         4.054341        -1.267904         0.639212
 C         2.878609        -0.138888         0.914489
 C         2.628102         1.684582        -0.621176
 O         1.373990         1.327020        -0.075673
 H        -0.317493        -0.077936         1.227984
 H        -0.475120        -1.211167        -0.139213
 H         0.410378        -1.662483         1.360086
 H         2.577287        -1.698949        -0.996404
 H         1.661525        -0.582243        -2.013883
 H         4.922430        -0.888244        -1.373051
 H         5.423392         0.285083        -0.069449
 H         3.017225         0.422519         1.776339
 H         3.129345         2.321862         0.087063
 H         2.631027         2.268002        -1.595298
