19
Iteration:  3193
 C         0.180143        -0.734918         0.409686
 C         1.500510        -0.035062         0.227330
 C         1.852670         1.026790        -0.730312
 C         3.308071         0.489528        -0.271904
 C         4.257616        -0.139405        -1.300984
 O         3.431951        -1.350168        -1.345866
 C         2.791734        -0.915743         0.001283
 C         3.350307         1.123269         1.116180
 O         2.011133         0.488095         1.522138
 H         0.405668        -1.502337         1.214703
 H        -0.716834        -0.206266         0.576569
 H         0.028810        -1.426948        -0.505575
 H         1.597794         0.864390        -1.848032
 H         1.782567         2.029730        -0.422233
 H         4.251074         0.377993        -2.266696
 H         5.286378        -0.224409        -1.013386
 H         3.011174        -1.669925         0.762289
 H         4.171167         0.631983         1.751798
 H         3.353744         2.318586         1.074329
