19
Iteration:  2618charge 0 multiplicity 1
 C         0.155330        -0.719561         0.460870
 C         1.520172        -0.165029         0.253528
 C         1.842123         0.620288        -0.955002
 C         3.385694         0.534040        -0.326905
 C         4.352093        -0.201187        -1.245988
 O         3.450776        -1.358384        -1.107946
 C         2.963013        -0.891171         0.185624
 C         3.268070         1.269374         1.013900
 O         1.843693         0.797034         1.332673
 H        -0.204947        -0.596887         1.523889
 H        -0.496276        -0.196460        -0.186515
 H         0.111109        -1.743191         0.106722
 H         1.743929         0.095051        -1.877759
 H         1.342302         1.586454        -1.018119
 H         4.398532         0.115258        -2.277594
 H         5.355272        -0.187718        -0.752080
 H         3.233749        -1.440536         0.998806
 H         3.907399         0.872826         1.740517
 H         3.214768         2.296132         1.074269
