19
Iteration:    14charge 0 multiplicity 1
 C         0.159408        -0.898779         0.737871
 C         1.467357        -0.310475         0.196254
 C         2.184565        -0.645454        -1.054468
 C         3.336578         0.215384        -0.610862
 C         4.708996        -0.265897        -0.368657
 O         3.999652        -1.141628         0.833547
 C         2.832821        -0.086664         0.836857
 C         2.675395         1.552323        -0.817526
 O         1.362349         1.308590        -0.190974
 H        -0.262153        -0.143595         1.311021
 H        -0.447312        -1.247642        -0.097060
 H         0.346294        -1.748124         1.383477
 H         2.278148        -1.721680        -1.218940
 H         1.721439        -0.159626        -1.880888
 H         5.327273        -0.785435        -0.984133
 H         5.278767         0.565717         0.115424
 H         2.877866         0.615386         1.723691
 H         3.261262         2.366584        -0.201120
 H         2.598614         2.059998        -1.892395
