19
Iteration:  2125charge 0 multiplicity 1
 C         0.250775        -0.729877         0.526610
 C         1.608996        -0.174840         0.135495
 C         2.012016         0.563021        -1.132285
 C         3.308972         0.600790        -0.323691
 C         4.267159        -0.304865        -1.162926
 O         3.553467        -1.527337        -0.832801
 C         2.892258        -0.838754         0.274079
 C         3.083334         1.450379         0.896609
 O         1.755888         0.847848         1.187369
 H        -0.316705        -1.123609        -0.298880
 H         0.414597        -1.646889         1.185757
 H        -0.304174         0.062758         1.089514
 H         1.936960        -0.004478        -2.113776
 H         1.504550         1.536785        -1.208186
 H         4.388839        -0.061496        -2.238741
 H         5.327032        -0.264601        -0.718967
 H         3.292018        -1.148129         1.263246
 H         3.755527         1.336909         1.676915
 H         3.121420         2.569718         0.685422
