19
Iteration:   263
 C         0.275614        -0.750649         0.804378
 C         1.494957        -0.178320         0.095297
 C         2.259537        -0.535198        -1.276661
 C         3.266581         0.389583        -0.551044
 C         4.574600        -0.401489        -0.364909
 O         3.987014        -1.254992         0.601180
 C         2.857170        -0.267666         0.856300
 C         2.612396         1.647644        -0.613890
 O         1.388410         1.210965         0.022356
 H        -0.228925        -1.310739         0.051452
 H         0.657004        -1.517368         1.528388
 H        -0.402749        -0.081690         1.325745
 H         2.561240        -1.569676        -1.346176
 H         1.843745        -0.156589        -2.176142
 H         4.778251        -1.005860        -1.228253
 H         5.498145         0.093755        -0.004170
 H         2.853249         0.094201         1.824022
 H         3.017856         2.458797        -0.054570
 H         2.478458         2.053064        -1.716549
