19
Iteration:  1405charge 0 multiplicity 1
 C         0.094193        -0.772218         0.595120
 C         1.511922        -0.236864         0.174672
 C         2.046273         0.269781        -1.232340
 C         3.319279         0.433045        -0.458647
 C         4.487541        -0.379338        -0.907024
 O         3.772571        -1.570351        -0.346842
 C         2.984675        -0.730879         0.462567
 C         2.860765         1.704280         0.396807
 O         1.659217         1.121976         0.881455
 H        -0.305342        -1.604529        -0.042138
 H         0.312793        -1.290925         1.565145
 H        -0.640026         0.033465         0.636408
 H         2.180901        -0.586677        -1.923233
 H         1.697868         1.190293        -1.740079
 H         4.664139        -0.465043        -1.959645
 H         5.450851        -0.234676        -0.366271
 H         3.194490        -0.578470         1.556620
 H         3.524104         1.925800         1.167130
 H         2.513244         2.512403        -0.252023
