19
Iteration:  3795charge 0 multiplicity 1
 C         0.062186        -0.741130         0.387878
 C         1.525112        -0.125482         0.290764
 C         2.026152         1.016134        -0.449052
 C         3.447749         0.456207        -0.140234
 C         4.213994        -0.055186        -1.430605
 O         3.181235        -1.004741        -1.627684
 C         2.785016        -0.908958        -0.242881
 C         3.396091         0.998325         1.283015
 O         2.108893         0.295564         1.598009
 H         0.016158        -1.710772        -0.114673
 H        -0.024619        -0.943668         1.523975
 H        -0.702188        -0.247857        -0.254752
 H         1.774381         0.838282        -1.468770
 H         1.820646         2.093843        -0.196319
 H         4.353588         0.555496        -2.349965
 H         5.253706        -0.514075        -1.177861
 H         3.032844        -1.879106         0.156680
 H         4.207508         0.576094         2.079947
 H         3.302534         2.077549         1.444048
