19
Iteration:   494
 C         0.205728        -0.724215         0.649766
 C         1.514679        -0.208099         0.208143
 C         2.075149        -0.478293        -1.185327
 C         3.267033         0.314664        -0.510960
 C         4.624332        -0.420083        -0.514164
 O         4.085034        -1.395140         0.398228
 C         2.939010        -0.380952         0.794594
 C         2.635110         1.793924        -0.379233
 O         1.372791         1.307589         0.134025
 H         0.273149        -1.797135         0.358936
 H         0.082439        -0.575390         1.682538
 H        -0.606452        -0.268152         0.070546
 H         2.292431        -1.570939        -1.240359
 H         1.524936         0.015460        -1.997017
 H         5.011074        -0.620170        -1.472682
 H         5.405750         0.080740         0.048164
 H         3.115937        -0.007187         1.789956
 H         3.066946         2.311922         0.416347
 H         2.533157         2.262549        -1.354386
