19
Iteration:  2686charge 0 multiplicity 1
 C         0.213982        -0.662027         0.507801
 C         1.582337        -0.189504         0.184406
 C         1.959471         0.753465        -1.044352
 C         3.290737         0.611779        -0.342692
 C         4.298550        -0.177058        -1.161606
 O         3.404934        -1.440645        -1.124955
 C         2.977355        -0.901091         0.147638
 C         3.110244         1.293590         1.018023
 O         1.910568         0.621025         1.405979
 H        -0.213800         0.045047         1.193372
 H        -0.412608        -0.820725        -0.339465
 H         0.315636        -1.633308         0.943846
 H         1.679596         0.150462        -2.019266
 H         1.529753         1.816684        -1.072929
 H         4.487625         0.017310        -2.242717
 H         5.256594        -0.408030        -0.601332
 H         3.475235        -1.206926         1.012203
 H         3.887288         1.265400         1.690807
 H         2.907954         2.309515         0.789279
