19
Iteration:  4616charge 0 multiplicity 1
 C         0.019363        -0.581443         0.498529
 C         1.514710        -0.128355         0.296874
 C         1.906426         0.994107        -0.672591
 C         3.347755         0.560599        -0.219695
 C         4.210038         0.115394        -1.433392
 O         3.379703        -1.105057        -1.510145
 C         2.812017        -0.918167        -0.201797
 C         3.478879         0.748210         1.269717
 O         2.010248         0.262492         1.589083
 H        -0.390238        -0.872104        -0.390751
 H         0.163008        -1.405044         1.126504
 H        -0.557619         0.185481         1.034112
 H         1.674804         0.607560        -1.773952
 H         1.779788         2.039965        -0.315662
 H         4.326819         0.693211        -2.407376
 H         5.308199        -0.220185        -1.142880
 H         3.175826        -1.691956         0.518332
 H         4.274287         0.011054         1.610318
 H         3.686477         1.822515         1.580983
