19
Iteration:   941charge 0 multiplicity 1
 C         0.122085        -0.831192         0.620669
 C         1.458828        -0.167538         0.185189
 C         1.959151        -0.095785        -1.225651
 C         3.324772         0.416788        -0.480804
 C         4.569418        -0.454697        -0.717621
 O         3.962022        -1.530603        -0.006212
 C         2.918565        -0.495493         0.662568
 C         2.797387         1.725392        -0.001137
 O         1.585005         1.266078         0.572609
 H        -0.683765        -0.037946         0.527451
 H        -0.067628        -1.701170        -0.136893
 H         0.098080        -1.414930         1.565996
 H         2.228802        -1.005735        -1.690170
 H         1.584804         0.578235        -2.079479
 H         4.797993        -0.652004        -1.765864
 H         5.451808        -0.030030        -0.218109
 H         3.065629        -0.253515         1.745884
 H         3.485657         2.149780         0.843455
 H         2.642760         2.618682        -0.798576
