19
Iteration:  1715charge 0 multiplicity 1
 C         0.181810        -0.744079         0.527091
 C         1.494413        -0.122961         0.284026
 C         1.889989         0.285100        -1.085158
 C         3.276229         0.472226        -0.403735
 C         4.477437        -0.258565        -1.021655
 O         3.754290        -1.563103        -0.633707
 C         2.881642        -0.834424         0.401401
 C         3.016768         1.533046         0.576354
 O         1.728433         1.073742         0.973223
 H         0.169492        -1.372085         1.395255
 H        -0.602960         0.004249         0.759145
 H        -0.129569        -1.269834        -0.413375
 H         1.828756        -0.517698        -1.782947
 H         1.388565         1.211711        -1.466388
 H         4.726629        -0.237734        -2.094165
 H         5.410411        -0.150864        -0.477550
 H         3.343108        -0.949546         1.392829
 H         3.827339         1.651422         1.231481
 H         2.851814         2.675776         0.249177
