19
Iteration:  4752charge 0 multiplicity 1
 C         0.112253        -0.611199         0.499283
 C         1.488932        -0.126305         0.239954
 C         1.941249         1.035260        -0.638927
 C         3.373051         0.565527        -0.175578
 C         4.183188         0.047151        -1.391380
 O         3.365068        -1.154933        -1.534968
 C         2.747572        -0.888634        -0.204399
 C         3.368910         0.822934         1.269914
 O         2.119406         0.203087         1.555251
 H        -0.465746        -0.417158        -0.428418
 H         0.121467        -1.675843         0.836090
 H        -0.335576         0.073866         1.199558
 H         1.615320         0.806703        -1.700479
 H         1.616705         2.160611        -0.381555
 H         4.233351         0.673784        -2.318261
 H         5.320012        -0.032539        -0.982924
 H         3.056709        -1.477034         0.566562
 H         4.277532         0.305365         1.648554
 H         3.383376         1.839289         1.602032
