19
Iteration:   552
 C         0.310586        -0.876916         0.659267
 C         1.500291        -0.203658         0.162572
 C         2.046883        -0.320022        -1.260371
 C         3.221644         0.326795        -0.557017
 C         4.632744        -0.395445        -0.501196
 O         3.921163        -1.417682         0.468962
 C         2.938504        -0.441487         0.699615
 C         2.758283         1.749063        -0.353069
 O         1.391686         1.401618         0.232144
 H         0.549069        -0.960542         1.740106
 H        -0.723415        -0.355605         0.628495
 H         0.244040        -1.885199         0.190521
 H         2.344859        -1.377492        -1.441894
 H         1.530384        -0.108020        -2.230140
 H         4.900813        -0.838251        -1.473262
 H         5.430834         0.050298         0.094096
 H         3.028220         0.072926         1.709462
 H         3.316581         2.440671         0.229616
 H         2.616908         2.356645        -1.286887
