19
Iteration:  1179charge 0 multiplicity 1
 C         0.139571        -0.930847         0.602666
 C         1.445697        -0.130287         0.166555
 C         1.977866         0.052019        -1.282986
 C         3.322508         0.494373        -0.559484
 C         4.558488        -0.459574        -0.729370
 O         3.773871        -1.539145        -0.201351
 C         2.933917        -0.608104         0.608650
 C         2.936654         1.749630         0.232505
 O         1.594465         1.256676         0.717720
 H        -0.664293        -0.934893        -0.137298
 H         0.572669        -1.885860         0.914708
 H        -0.135651        -0.440610         1.494730
 H         2.249819        -0.868879        -1.750561
 H         1.472342         0.781124        -1.983423
 H         4.831242        -0.668807        -1.800663
 H         5.460566        -0.085132        -0.300483
 H         3.285384        -0.683920         1.665742
 H         3.692010         1.875923         1.110064
 H         2.716360         2.616281        -0.369282
