19
Iteration:  4023
 C         0.028024        -0.637967         0.502022
 C         1.480523        -0.121551         0.304398
 C         1.930115         0.919356        -0.592408
 C         3.410608         0.480255        -0.203159
 C         4.295882         0.001251        -1.292593
 O         3.323152        -0.933500        -1.662778
 C         2.725899        -0.950609        -0.199935
 C         3.432222         0.933446         1.210504
 O         2.097056         0.223490         1.581802
 H        -0.226066        -1.134578        -0.412384
 H        -0.056702        -1.313118         1.381722
 H        -0.603545         0.241886         0.631929
 H         1.734883         0.578071        -1.702050
 H         1.563786         1.867461        -0.228184
 H         4.568230         0.625490        -2.205098
 H         5.188027        -0.464945        -0.915993
 H         3.184749        -1.917259         0.287354
 H         4.209130         0.593276         1.907892
 H         3.230722         1.970147         1.354643
