19
Iteration:  1427
 C         0.221641        -0.672907         0.580394
 C         1.598677        -0.210782         0.181348
 C         1.945073         0.152303        -1.275094
 C         3.362782         0.510646        -0.388518
 C         4.495638        -0.432728        -0.904364
 O         3.761109        -1.547582        -0.418172
 C         2.905086        -0.704997         0.466136
 C         2.884871         1.722139         0.459946
 O         1.614283         1.034987         0.886391
 H         0.076387        -1.786812         0.478716
 H        -0.051679        -0.339432         1.611460
 H        -0.363402        -0.121282        -0.170086
 H         2.146809        -0.826147        -1.827211
 H         1.363644         0.959982        -1.766958
 H         4.562217        -0.414149        -1.963864
 H         5.416750        -0.043974        -0.451439
 H         3.114323        -0.854157         1.569382
 H         3.417909         1.885180         1.330980
 H         2.504980         2.557813        -0.172044
