19
Iteration:  3901
 C         0.059500        -0.652940         0.483770
 C         1.476557        -0.126212         0.194181
 C         1.952008         0.997347        -0.662958
 C         3.393933         0.490031        -0.157495
 C         4.295316        -0.013508        -1.369175
 O         3.235366        -1.000774        -1.614927
 C         2.816911        -0.946832        -0.224297
 C         3.378930         0.914701         1.292775
 O         2.111060         0.243531         1.655841
 H        -0.195393        -1.394159        -0.271488
 H         0.187480        -1.135017         1.427152
 H        -0.626124         0.126453         0.708559
 H         1.801787         0.686539        -1.790832
 H         1.603074         1.995335        -0.343473
 H         4.438283         0.706669        -2.226369
 H         5.199470        -0.473139        -1.068755
 H         3.199326        -1.777386         0.466262
 H         4.204167         0.596867         1.901613
 H         3.319606         2.006366         1.412234
