19
Iteration:  3038charge 0 multiplicity 1
 C         0.165814        -0.758695         0.444199
 C         1.503633        -0.098633         0.317036
 C         1.953487         0.867331        -0.762694
 C         3.437343         0.440100        -0.217936
 C         4.280440        -0.123996        -1.399844
 O         3.398176        -1.317814        -1.372709
 C         2.876708        -0.956631         0.089185
 C         3.259708         1.182249         1.079259
 O         1.885266         0.656786         1.507236
 H        -0.486854        -0.413633        -0.380119
 H         0.330320        -1.868580         0.246786
 H        -0.438787        -0.504026         1.316097
 H         1.745816         0.628844        -1.809386
 H         1.725105         1.787144        -0.544405
 H         4.345941         0.305694        -2.410892
 H         5.256699        -0.261422        -1.017335
 H         3.214415        -1.791084         0.681416
 H         4.046415         0.905089         1.812535
 H         3.153363         2.344292         0.924809
