19
Iteration:  1535charge 0 multiplicity 1
 C         0.231478        -0.819190         0.560088
 C         1.477050        -0.163229         0.204395
 C         1.949347         0.227260        -1.155144
 C         3.314805         0.451265        -0.360155
 C         4.453560        -0.383804        -0.964757
 O         3.749149        -1.599937        -0.558836
 C         2.919148        -0.797988         0.498829
 C         2.993383         1.690231         0.474117
 O         1.633969         1.214142         0.925431
 H        -0.428663        -0.069823         1.020070
 H        -0.277488        -1.182673        -0.334972
 H         0.308081        -1.669071         1.171905
 H         2.115901        -0.502975        -2.038327
 H         1.419880         1.084651        -1.591855
 H         4.617046        -0.124931        -1.996423
 H         5.339504        -0.221092        -0.323546
 H         3.274856        -1.037658         1.556641
 H         3.695958         1.924693         1.248852
 H         2.893895         2.699342        -0.099039
