19
Iteration:  4346
 C         0.053207        -0.633697         0.412787
 C         1.494924        -0.170131         0.306912
 C         1.919987         0.940677        -0.557569
 C         3.416165         0.442803        -0.199106
 C         4.313208         0.066407        -1.374557
 O         3.280447        -1.046471        -1.604532
 C         2.775514        -0.971844        -0.184380
 C         3.400031         0.947481         1.237265
 O         2.114993         0.282086         1.603774
 H        -0.484658        -0.277939        -0.516338
 H        -0.071461        -1.693012         0.581845
 H        -0.326092        -0.017361         1.297832
 H         1.431362         0.922485        -1.608523
 H         1.519869         1.958591        -0.186045
 H         4.497214         0.607950        -2.291450
 H         5.288414        -0.446733        -1.032943
 H         3.100304        -1.729097         0.365406
 H         4.200661         0.610993         1.946085
 H         3.199453         2.003273         1.313009
