19
Iteration:  3156
 C         0.152858        -0.664532         0.424033
 C         1.528716        -0.208529         0.204970
 C         1.923589         0.804938        -0.883647
 C         3.368691         0.560010        -0.247704
 C         4.250733        -0.113887        -1.306990
 O         3.307767        -1.225029        -1.361808
 C         2.906740        -0.905595         0.050901
 C         3.321343         1.117402         1.214032
 O         1.988212         0.553296         1.528414
 H         0.178158        -1.698371         0.599483
 H        -0.199356        -0.261734         1.389032
 H        -0.423363        -0.530716        -0.411704
 H         1.791254         0.353013        -2.015638
 H         1.462973         1.893272        -0.851322
 H         4.251724         0.331566        -2.367455
 H         5.321679        -0.386760        -1.021962
 H         3.306244        -1.576038         0.837187
 H         4.023180         0.623911         1.816810
 H         3.272465         2.100294         1.451307
