19
Iteration:  4103
 C         0.174197        -0.718690         0.300385
 C         1.489452        -0.091952         0.354428
 C         1.988587         1.004761        -0.511313
 C         3.355545         0.527881        -0.215749
 C         4.126985         0.019319        -1.379655
 O         3.286270        -1.090733        -1.601615
 C         2.753769        -0.936371        -0.177593
 C         3.465468         0.885077         1.258400
 O         2.083234         0.350924         1.628820
 H        -0.112364        -1.094610        -0.589572
 H         0.148996        -1.430825         1.062443
 H        -0.630447        -0.021046         0.480875
 H         1.811272         0.672502        -1.591164
 H         1.682697         2.213432        -0.342012
 H         4.176428         0.670061        -2.223670
 H         5.092579        -0.342014        -1.100830
 H         3.171524        -1.972928         0.381971
 H         4.056466         0.153552         1.866067
 H         3.596395         1.886723         1.629264
