19
Iteration:  4086
 C         0.171726        -0.714660         0.387760
 C         1.523083        -0.131975         0.276487
 C         1.920668         1.074287        -0.674627
 C         3.412519         0.521275        -0.175538
 C         4.204193         0.083152        -1.410019
 O         3.214397        -1.113307        -1.534713
 C         2.816382        -0.887227        -0.164420
 C         3.469688         0.714567         1.305175
 O         2.043219         0.368940         1.631427
 H         0.082766        -1.459394        -0.574519
 H        -0.085428        -1.364901         1.306636
 H        -0.641085         0.058764         0.326530
 H         1.616304         1.134012        -1.684240
 H         1.492696         1.943891        -0.266830
 H         4.151918         0.714682        -2.357463
 H         5.286339        -0.282783        -1.286802
 H         3.094063        -1.518435         0.566858
 H         4.258104         0.147100         1.771968
 H         3.556641         1.798952         1.669832
