19
Iteration:   301
 C         0.181406        -0.834679         0.664868
 C         1.511516        -0.180827         0.260810
 C         2.071393        -0.605126        -1.115502
 C         3.293225         0.337013        -0.662029
 C         4.616404        -0.441155        -0.401949
 O         3.995630        -1.284904         0.577597
 C         3.023059        -0.154318         0.759591
 C         2.650970         1.727507        -0.459443
 O         1.355962         1.272372        -0.039545
 H         0.458048        -1.946746         0.569398
 H        -0.193751        -0.628978         1.674619
 H        -0.581358        -0.629930        -0.142502
 H         2.566606        -1.599909        -1.167246
 H         1.510028        -0.334502        -2.058982
 H         5.003164        -1.064614        -1.265201
 H         5.384261         0.233833         0.069661
 H         3.377234         0.295269         1.762960
 H         3.355429         2.431271         0.189226
 H         2.470106         2.463501        -1.225648
