19
Iteration:  3821
 C         0.161141        -0.640410         0.382581
 C         1.565655        -0.130853         0.282653
 C         1.942470         1.050686        -0.660243
 C         3.328979         0.469893        -0.199504
 C         4.193049         0.071074        -1.356034
 O         3.190807        -1.066441        -1.607217
 C         2.809978        -0.931235        -0.139620
 C         3.440039         0.885429         1.268141
 O         2.110879         0.215068         1.680351
 H        -0.015656        -1.721477        -0.109683
 H        -0.094343        -0.674927         1.479070
 H        -0.499750        -0.004980        -0.308977
 H         1.626828         0.943662        -1.663459
 H         1.787265         2.030058        -0.348684
 H         4.275988         0.756572        -2.198464
 H         5.181137        -0.374668        -1.143133
 H         3.171653        -1.795184         0.439547
 H         4.225765         0.397066         1.717833
 H         3.370797         1.941996         1.587140
