19
Iteration:  3547charge 0 multiplicity 1
 C         0.132030        -0.596468         0.512665
 C         1.487875        -0.144730         0.267955
 C         1.944008         0.945742        -0.774237
 C         3.390841         0.586962        -0.232263
 C         4.196196        -0.003788        -1.411066
 O         3.389939        -1.146634        -1.527725
 C         2.855100        -0.922758        -0.132787
 C         3.330110         0.862009         1.276934
 O         1.987215         0.317982         1.607153
 H         0.092338        -1.229413         1.444145
 H        -0.448371         0.168803         0.703584
 H        -0.270608        -1.142661        -0.311879
 H         1.838855         0.606486        -1.826093
 H         1.689282         2.089455        -0.516813
 H         4.137000         0.722348        -2.266254
 H         5.314711        -0.174282        -1.271223
 H         3.273560        -1.666864         0.595746
 H         4.160689         0.318971         1.974022
 H         3.297297         2.012005         1.669350
