19
Iteration:  1416
 C         0.202380        -0.670847         0.566813
 C         1.496437        -0.240252         0.086292
 C         2.016031         0.152380        -1.241382
 C         3.335431         0.545907        -0.410693
 C         4.491787        -0.402870        -0.917784
 O         3.775898        -1.582385        -0.382319
 C         2.970930        -0.690441         0.532744
 C         2.839487         1.699065         0.388053
 O         1.614898         1.049709         0.923239
 H        -0.067681        -1.680684         0.171802
 H         0.272422        -0.675754         1.697128
 H        -0.598775         0.032683         0.380266
 H         2.096096        -0.515969        -2.125617
 H         1.396410         1.022116        -1.542821
 H         4.628497        -0.469681        -1.979674
 H         5.471474        -0.418449        -0.404732
 H         3.301614        -0.937601         1.582994
 H         3.461450         1.950236         1.185263
 H         2.712208         2.680108        -0.099754
