19
Iteration:   453charge 0 multiplicity 1
 C         0.248753        -0.835647         0.671980
 C         1.495935        -0.264094         0.153294
 C         2.085219        -0.491421        -1.267392
 C         3.295479         0.385434        -0.599355
 C         4.612271        -0.451097        -0.449348
 O         3.947646        -1.330847         0.488568
 C         2.905665        -0.253098         0.751698
 C         2.648054         1.771405        -0.437305
 O         1.471074         1.291426         0.254738
 H        -0.386872        -1.066945        -0.257467
 H         0.376450        -1.765894         1.285866
 H        -0.352636        -0.036826         1.214439
 H         2.505469        -1.518456        -1.500054
 H         1.574217        -0.094603        -2.192948
 H         5.003983        -1.140132        -1.234151
 H         5.489773         0.119142         0.000284
 H         3.164207         0.374651         1.648511
 H         3.342470         2.368569         0.228741
 H         2.241552         2.250818        -1.390404
