19
Iteration:  2736charge 0 multiplicity 1
 C         0.161986        -0.824632         0.514087
 C         1.470878        -0.112993         0.241112
 C         1.959479         0.782030        -0.942827
 C         3.302022         0.501773        -0.290623
 C         4.317213        -0.167503        -1.238486
 O         3.517870        -1.431674        -1.206469
 C         2.898537        -0.900501         0.105739
 C         3.236143         1.272403         0.970732
 O         1.840794         0.803522         1.438172
 H        -0.550859        -0.195051        -0.130142
 H         0.219044        -1.870708         0.209429
 H        -0.169599        -0.918320         1.566904
 H         1.902483         0.426642        -1.896898
 H         1.605873         1.775576        -0.837011
 H         4.363637         0.254164        -2.235847
 H         5.308256        -0.380948        -0.857927
 H         3.217969        -1.639737         0.932207
 H         3.966530         0.765065         1.728517
 H         3.394597         2.407450         1.055509
