19
Iteration:   767
 C         0.184627        -0.815999         0.626314
 C         1.472329        -0.199480         0.153149
 C         1.987706        -0.253495        -1.269111
 C         3.324625         0.401162        -0.634338
 C         4.596214        -0.428792        -0.622305
 O         3.934016        -1.456420         0.219097
 C         2.898585        -0.480923         0.730898
 C         2.835449         1.803034        -0.147006
 O         1.507886         1.260783         0.446176
 H        -0.438494         0.055238         0.905662
 H        -0.199703        -1.468672        -0.175071
 H         0.285997        -1.408156         1.556627
 H         1.998124        -1.333187        -1.560952
 H         1.452209         0.457388        -1.985237
 H         5.096699        -0.793886        -1.533275
 H         5.436081         0.007520         0.006726
 H         3.084667        -0.158495         1.758913
 H         3.397043         2.245059         0.729675
 H         2.380790         2.412667        -0.828777
