19
Iteration:  2365
 C         0.046954        -0.674717         0.446791
 C         1.507164        -0.216788         0.277985
 C         1.859487         0.464989        -1.070560
 C         3.320011         0.566119        -0.396295
 C         4.359420        -0.179887        -1.144087
 O         3.513800        -1.396523        -1.021565
 C         2.886773        -0.813852         0.177483
 C         3.267303         1.356685         0.940623
 O         1.928971         0.815477         1.383414
 H        -0.561898        -0.276522        -0.277390
 H         0.078608        -1.737160         0.315442
 H        -0.275493        -0.445002         1.450076
 H         1.887315        -0.266118        -1.991203
 H         1.206798         1.354923        -1.348048
 H         4.653508         0.108110        -2.162817
 H         5.206726        -0.286102        -0.483705
 H         3.467377        -1.251992         1.033255
 H         4.101086         0.797188         1.456285
 H         3.340254         2.451390         0.999784
