19
Iteration:   955charge 0 multiplicity 1
 C         0.159228        -0.773612         0.605258
 C         1.460558        -0.183473         0.126829
 C         2.052591        -0.130143        -1.331030
 C         3.298792         0.455808        -0.543582
 C         4.567832        -0.424018        -0.742010
 O         3.889537        -1.523926         0.068276
 C         2.931408        -0.548526         0.595768
 C         2.832643         1.802215         0.033739
 O         1.554063         1.189569         0.699730
 H        -0.790957        -0.281057         0.261564
 H         0.111353        -1.859786         0.263260
 H         0.216341        -0.598573         1.696628
 H         2.158573        -1.189030        -1.700352
 H         1.359612         0.488613        -1.967571
 H         4.780086        -0.807504        -1.741847
 H         5.475558        -0.140867        -0.173084
 H         3.249718        -0.396387         1.608118
 H         3.448217         2.432804         0.878412
 H         2.416068         2.510769        -0.777752
