19
Iteration:  3040charge 0 multiplicity 1
 C         0.157758        -0.759216         0.444340
 C         1.505807        -0.106600         0.334074
 C         1.944771         0.863860        -0.788217
 C         3.438837         0.452026        -0.221933
 C         4.266793        -0.142474        -1.402493
 O         3.410696        -1.301901        -1.370580
 C         2.875887        -0.956670         0.091554
 C         3.272203         1.189737         1.085853
 O         1.885156         0.652224         1.506007
 H        -0.511933        -0.443089        -0.481551
 H         0.333024        -1.858572         0.254724
 H        -0.507754        -0.489056         1.384793
 H         1.775271         0.622491        -1.753189
 H         1.720071         1.855113        -0.543765
 H         4.315791         0.339160        -2.392829
 H         5.302039        -0.314913        -1.024443
 H         3.226061        -1.821600         0.665508
 H         4.026521         0.878936         1.839667
 H         3.196005         2.315471         0.928114
