19
Iteration:   107
 C         0.271209        -0.838633         0.769255
 C         1.470655        -0.174625         0.146443
 C         2.212934        -0.705611        -1.141005
 C         3.269046         0.279770        -0.518277
 C         4.592211        -0.348984        -0.311470
 O         4.021253        -1.173806         0.696728
 C         2.918097        -0.205706         0.858619
 C         2.679112         1.573068        -0.704128
 O         1.276943         1.372987        -0.179621
 H         0.192580        -1.862758         0.282427
 H         0.343692        -0.896975         1.867597
 H        -0.695192        -0.354079         0.449451
 H         2.387063        -1.778203        -1.173057
 H         1.886403        -0.283612        -2.133998
 H         5.126417        -0.918292        -1.179133
 H         5.326658         0.342192         0.102259
 H         3.161981         0.359830         1.751282
 H         3.055437         2.441395        -0.070222
 H         2.634264         2.016167        -1.790469
