19
Iteration:  1928
 C         0.140274        -0.817458         0.599143
 C         1.485147        -0.197359         0.189981
 C         1.947825         0.457442        -1.144556
 C         3.333290         0.496814        -0.317726
 C         4.384770        -0.323750        -1.036012
 O         3.683797        -1.530523        -0.837164
 C         2.904565        -0.842449         0.361352
 C         3.132155         1.535543         0.682908
 O         1.712519         1.057550         1.100172
 H         0.233825        -1.904823         0.886300
 H        -0.261130        -0.227414         1.476362
 H        -0.641669        -0.664850        -0.203514
 H         2.040337        -0.082166        -2.010924
 H         1.458127         1.466015        -1.138134
 H         4.495728        -0.177108        -2.111914
 H         5.371661        -0.365127        -0.541701
 H         3.387899        -1.280375         1.183245
 H         3.862243         1.709922         1.578295
 H         2.930492         2.568092         0.213454
