19
Iteration:   236
 C         0.247477        -0.838795         0.774245
 C         1.485075        -0.300560         0.083181
 C         2.120567        -0.573710        -1.244711
 C         3.274365         0.352050        -0.670374
 C         4.746581        -0.420659        -0.283407
 O         3.980285        -1.267005         0.665838
 C         2.900462        -0.143067         0.728071
 C         2.572134         1.677960        -0.639108
 O         1.400228         1.286710         0.081498
 H        -0.612963        -0.364556         0.205813
 H         0.188121        -1.924120         0.833350
 H         0.292138        -0.471606         1.827674
 H         2.380333        -1.638566        -1.397162
 H         1.575832        -0.074032        -2.109631
 H         5.310355        -1.093329        -0.992589
 H         5.387872         0.262688         0.287895
 H         2.871130         0.363601         1.792831
 H         3.174422         2.577317        -0.209175
 H         2.339087         2.204460        -1.598411
