19
Iteration:  3249
 C         0.136291        -0.622940         0.540658
 C         1.569551        -0.215388         0.322768
 C         1.930021         0.775753        -0.795561
 C         3.361066         0.480729        -0.232714
 C         4.354151        -0.028399        -1.315226
 O         3.367976        -1.180176        -1.484903
 C         2.833472        -0.976939        -0.102863
 C         3.242619         1.047326         1.200857
 O         1.950233         0.563244         1.517639
 H        -0.243826        -0.352367         1.568563
 H        -0.495900        -0.000458        -0.076971
 H        -0.124927        -1.751103         0.335537
 H         1.827088         0.340429        -1.755124
 H         1.638500         1.810457        -0.837484
 H         4.359289         0.511949        -2.232292
 H         5.352160        -0.257757        -0.948422
 H         3.227662        -1.791626         0.530222
 H         4.087692         0.793811         1.960857
 H         3.308187         2.220343         1.071581
