19
Iteration:  2081charge 0 multiplicity 1
 C         0.061573        -0.795101         0.473940
 C         1.448960        -0.132988         0.310679
 C         1.847910         0.502122        -1.009713
 C         3.310834         0.506220        -0.410339
 C         4.434193        -0.278141        -1.005492
 O         3.658751        -1.499463        -0.937151
 C         2.904191        -0.826378         0.269239
 C         3.189500         1.473521         0.698843
 O         1.839532         0.940277         1.216597
 H        -0.665637        -0.312088        -0.151975
 H         0.150532        -1.875696         0.096609
 H        -0.268430        -0.816925         1.550043
 H         1.857109        -0.084299        -1.934207
 H         1.386327         1.451044        -1.320199
 H         4.762508        -0.114369        -2.054740
 H         5.416719        -0.330112        -0.415635
 H         3.286848        -1.132396         1.252196
 H         3.891877         1.377489         1.458131
 H         3.000486         2.574127         0.684851
