19
Iteration:  3385charge 0 multiplicity 1
 C         0.091216        -0.625451         0.516733
 C         1.514691        -0.172803         0.229336
 C         1.927938         0.904834        -0.793522
 C         3.388883         0.587811        -0.261327
 C         4.247606        -0.082712        -1.328364
 O         3.325302        -1.150089        -1.391519
 C         2.884565        -0.881911        -0.077128
 C         3.331749         1.027563         1.172083
 O         2.023019         0.327048         1.523128
 H        -0.761998        -0.163888        -0.119609
 H         0.115516        -1.841488         0.215601
 H        -0.075128        -0.388991         1.593004
 H         1.821224         0.554455        -1.790513
 H         1.499629         1.851568        -0.683269
 H         4.565196         0.398204        -2.264214
 H         5.148924        -0.370725        -0.834703
 H         3.226064        -1.601375         0.687859
 H         4.155752         0.615178         1.767352
 H         3.245617         2.201021         1.383345
