19
Iteration:  1486charge 0 multiplicity 1
 C         0.271461        -0.803975         0.506437
 C         1.531396        -0.138730         0.150399
 C         1.906669         0.307181        -1.205026
 C         3.333187         0.461982        -0.472596
 C         4.436436        -0.387993        -0.890005
 O         3.722702        -1.613562        -0.374487
 C         2.935910        -0.718228         0.418832
 C         2.909672         1.667384         0.435428
 O         1.701354         1.106780         0.956328
 H         0.347407        -0.997557         1.601867
 H        -0.677058        -0.270897         0.307836
 H         0.182120        -1.835300         0.047377
 H         1.884800        -0.441371        -1.948443
 H         1.325653         1.125318        -1.616468
 H         4.597538        -0.563320        -2.007300
 H         5.349603        -0.082090        -0.324707
 H         3.052807        -0.778568         1.473088
 H         3.638773         1.870908         1.286325
 H         2.774815         2.612258         0.117536
