19
Iteration:  2119
 C         0.251012        -0.780217         0.509505
 C         1.516972        -0.209760         0.144300
 C         2.016158         0.605829        -1.105095
 C         3.300227         0.549228        -0.338506
 C         4.287771        -0.285159        -1.142095
 O         3.606427        -1.546699        -0.841816
 C         2.863928        -0.862342         0.261611
 C         3.099153         1.464578         0.857177
 O         1.770364         0.942664         1.214038
 H        -0.521005        -0.984596        -0.315232
 H         0.437007        -1.663423         1.087708
 H        -0.188563        -0.020888         1.157029
 H         2.106313        -0.013937        -1.980951
 H         1.488744         1.553242        -1.153551
 H         4.249365         0.003968        -2.196562
 H         5.282917        -0.296275        -0.749943
 H         3.373361        -1.183572         1.160836
 H         3.820426         1.162245         1.742603
 H         3.053148         2.499842         0.611808
