19
Iteration:  4604
 C         0.105841        -0.588515         0.505018
 C         1.476555        -0.089727         0.272371
 C         2.007644         0.960389        -0.692455
 C         3.347329         0.498448        -0.263309
 C         4.188663         0.081569        -1.362246
 O         3.336273        -1.099240        -1.593929
 C         2.809031        -0.908144        -0.149029
 C         3.388350         0.794567         1.262479
 O         2.079220         0.262094         1.618258
 H        -0.476920        -0.655920        -0.368114
 H         0.055622        -1.567415         0.951808
 H        -0.497430         0.074999         1.177433
 H         1.728471         0.868444        -1.855956
 H         1.616368         1.968382        -0.542637
 H         4.068677         0.789407        -2.264434
 H         5.293417        -0.154194        -1.031715
 H         3.292636        -1.708117         0.560351
 H         4.165336         0.161410         1.805162
 H         3.381889         1.805065         1.855327
