19
Iteration:   442charge 0 multiplicity 1
 C         0.308141        -0.789453         0.647190
 C         1.586530        -0.200722         0.122260
 C         2.120762        -0.420633        -1.257058
 C         3.326844         0.383635        -0.728738
 C         4.568544        -0.498293        -0.418131
 O         3.913377        -1.297356         0.570902
 C         2.961933        -0.334912         0.724558
 C         2.616740         1.720482        -0.445429
 O         1.396532         1.249885         0.272265
 H        -0.543495        -0.797740        -0.143916
 H         0.506765        -1.825692         1.048603
 H         0.046925        -0.176679         1.584565
 H         2.336384        -1.538643        -1.358938
 H         1.432175         0.006476        -2.041357
 H         4.904312        -1.082459        -1.312864
 H         5.416705         0.132132         0.002846
 H         2.887653         0.033752         1.792770
 H         2.995998         2.589735         0.199772
 H         2.341601         2.293645        -1.421768
