19
Iteration:  3691
 C         0.100526        -0.593976         0.436556
 C         1.539132        -0.216318         0.262399
 C         1.941408         0.946848        -0.686262
 C         3.407377         0.554094        -0.200350
 C         4.220707         0.013165        -1.361366
 O         3.224107        -1.030572        -1.519614
 C         2.849429        -0.881653        -0.162802
 C         3.335377         0.942170         1.268395
 O         2.124122         0.167820         1.601806
 H        -0.417005         0.061595        -0.237435
 H        -0.250537        -1.484139         0.240361
 H        -0.123262        -0.409952         1.418433
 H         1.810709         0.485943        -1.786090
 H         1.632545         2.000052        -0.532246
 H         4.257302         0.699303        -2.229271
 H         5.169221        -0.476206        -1.136650
 H         3.389488        -1.619923         0.471851
 H         4.158041         0.475747         1.854402
 H         3.228692         2.068508         1.499105
