19
Iteration:  4588
 C         0.100042        -0.627457         0.507064
 C         1.579875        -0.157543         0.247429
 C         1.927579         1.016070        -0.644038
 C         3.411454         0.487823        -0.153326
 C         4.255516         0.029188        -1.380666
 O         3.272669        -1.078088        -1.583946
 C         2.754252        -0.922988        -0.238310
 C         3.374714         0.914474         1.315616
 O         2.065742         0.253922         1.583866
 H        -0.476745        -0.497524        -0.521228
 H         0.047773        -1.734550         0.821770
 H        -0.272398        -0.028393         1.344979
 H         1.846912         0.751232        -1.622385
 H         1.676847         2.078478        -0.474476
 H         4.328201         0.660357        -2.231391
 H         5.165472        -0.449705        -1.234650
 H         3.047980        -1.815710         0.420532
 H         4.176468         0.544146         1.912314
 H         3.357593         1.975187         1.294699
