19
Iteration:    36
 C         0.180685        -0.865454         0.728424
 C         1.458785        -0.211769         0.132943
 C         2.069953        -0.744414        -1.160582
 C         3.261184         0.291394        -0.590471
 C         4.592059        -0.320528        -0.205783
 O         4.079035        -1.078458         0.769265
 C         2.948038        -0.206055         0.826316
 C         2.693408         1.631978        -0.784779
 O         1.417070         1.293180        -0.148980
 H        -0.701026        -0.304269         0.730491
 H         0.108714        -1.762845         0.097919
 H         0.346670        -1.244999         1.727283
 H         2.366616        -1.792234        -0.988845
 H         1.482492        -0.625573        -2.045098
 H         5.082507        -0.902876        -0.903144
 H         5.336135         0.437852         0.156981
 H         2.985127         0.537463         1.672259
 H         3.163590         2.528595        -0.251578
 H         2.599286         1.997020        -1.900374
