19
Iteration:   387charge 0 multiplicity 1
 C         0.263958        -0.871258         0.691683
 C         1.522643        -0.195937         0.198476
 C         2.126222        -0.552889        -1.116191
 C         3.246880         0.305845        -0.589336
 C         4.615879        -0.344865        -0.460170
 O         3.927843        -1.358937         0.466027
 C         2.894650        -0.261332         0.816482
 C         2.726722         1.790727        -0.459268
 O         1.418856         1.304501        -0.003185
 H        -0.294252        -0.217648         1.487854
 H        -0.475117        -1.079901        -0.084698
 H         0.454319        -1.803685         1.322462
 H         2.510778        -1.606261        -1.194947
 H         1.581142        -0.294096        -2.062299
 H         4.989162        -0.886877        -1.351572
 H         5.344200         0.424242        -0.039938
 H         3.012297         0.141510         1.859839
 H         3.219645         2.311764         0.504170
 H         2.501593         2.634638        -1.261752
