19
Iteration:   686charge 0 multiplicity 1
 C         0.206825        -0.796621         0.684826
 C         1.471366        -0.168810         0.131544
 C         2.189576        -0.275194        -1.257698
 C         3.320184         0.432721        -0.558651
 C         4.574609        -0.477683        -0.581898
 O         3.915691        -1.469814         0.260558
 C         2.926706        -0.419675         0.743857
 C         2.704130         1.805734        -0.277814
 O         1.446084         1.244202         0.397402
 H         0.300366        -1.896243         0.636815
 H         0.026861        -0.524614         1.736536
 H        -0.624171        -0.635408        -0.011604
 H         2.325664        -1.288282        -1.513297
 H         1.646882         0.148407        -2.033682
 H         4.795665        -0.896550        -1.573087
 H         5.430510        -0.092274        -0.090395
 H         3.118584        -0.112070         1.809881
 H         3.127214         2.343916         0.500275
 H         2.499255         2.551073        -1.025950
