19
Iteration:  3136
 C         0.132438        -0.646748         0.539888
 C         1.546151        -0.180400         0.280056
 C         1.948895         0.781158        -0.811189
 C         3.374005         0.498691        -0.222286
 C         4.298044        -0.031288        -1.255849
 O         3.370148        -1.252005        -1.369417
 C         2.841308        -0.926004        -0.078633
 C         3.269303         1.102587         1.105137
 O         1.969965         0.546084         1.442502
 H         0.041008        -1.699233         0.424689
 H        -0.238354        -0.454303         1.539391
 H        -0.481323        -0.132092        -0.134522
 H         1.961023         0.230711        -1.895010
 H         1.604535         1.838512        -0.804625
 H         4.348272         0.575731        -2.183364
 H         5.252081        -0.391477        -0.876704
 H         3.068163        -1.698670         0.657066
 H         3.955776         0.798891         1.895512
 H         3.279942         2.225451         1.077975
