19
Iteration:  4146charge 0 multiplicity 1
 C         0.081512        -0.628521         0.501576
 C         1.589493        -0.141158         0.199918
 C         1.985977         0.974039        -0.645551
 C         3.425203         0.604116        -0.174519
 C         4.227385        -0.020314        -1.326180
 O         3.231751        -1.054030        -1.575549
 C         2.833862        -0.899660        -0.228547
 C         3.288870         0.895288         1.299576
 O         2.075195         0.215858         1.538812
 H        -0.635842        -0.400984        -0.217478
 H         0.187020        -1.660807         0.797505
 H        -0.184260        -0.018698         1.407572
 H         1.833410         0.586807        -1.667400
 H         1.615600         1.977064        -0.309791
 H         4.411475         0.543817        -2.265319
 H         5.135947        -0.452308        -0.896246
 H         3.267809        -1.801118         0.510437
 H         4.223635         0.480453         1.773980
 H         3.198770         1.924646         1.486430
