19
Iteration:   614charge 0 multiplicity 1
 C         0.200762        -0.749607         0.618449
 C         1.526811        -0.186998         0.125737
 C         2.131636        -0.345818        -1.273452
 C         3.309725         0.387143        -0.527836
 C         4.620748        -0.407157        -0.601365
 O         3.986354        -1.447805         0.384238
 C         2.872008        -0.433965         0.802425
 C         2.614165         1.762323        -0.330644
 O         1.458084         1.240346         0.347683
 H        -0.663015        -0.052611         0.567071
 H         0.010556        -1.762409         0.345987
 H         0.443235        -0.715705         1.715312
 H         2.317336        -1.489757        -1.519277
 H         1.826992         0.180311        -2.242503
 H         4.776731        -0.864828        -1.593331
 H         5.612280        -0.148582        -0.120342
 H         3.009393         0.096278         1.740082
 H         3.226574         2.489152         0.351603
 H         2.175240         2.466323        -1.138815
