19
Iteration:  1204
 C         0.257059        -0.817994         0.535720
 C         1.541341        -0.154135         0.248276
 C         1.987831         0.049419        -1.196227
 C         3.329372         0.502902        -0.532532
 C         4.462435        -0.444032        -0.799394
 O         3.743346        -1.593635        -0.187171
 C         2.930906        -0.603911         0.579810
 C         2.836131         1.738277         0.265746
 O         1.597929         1.187272         0.683318
 H         0.030482        -1.378404        -0.388569
 H         0.410646        -1.492700         1.389463
 H        -0.453310         0.037705         0.709997
 H         2.205349        -0.922562        -1.832191
 H         1.436206         0.801919        -1.709716
 H         4.766648        -0.588912        -1.892628
 H         5.471612        -0.178332        -0.266812
 H         3.571399        -0.436616         1.505655
 H         3.412070         1.822003         1.168470
 H         2.696926         2.776609        -0.268218
