19
Iteration:  1185
 C         0.190940        -0.895214         0.576411
 C         1.507354        -0.135370         0.177566
 C         1.949080         0.018866        -1.272170
 C         3.303984         0.480087        -0.537666
 C         4.580831        -0.469238        -0.769416
 O         3.735257        -1.538723        -0.200355
 C         3.004365        -0.559105         0.569244
 C         2.971057         1.704147         0.271359
 O         1.517264         1.263714         0.733868
 H        -0.527862        -1.129480        -0.241334
 H         0.425085        -1.896723         0.989926
 H        -0.289297        -0.231486         1.395349
 H         2.116722        -0.964058        -1.795584
 H         1.432963         0.722304        -1.911140
 H         4.787790        -0.627742        -1.810268
 H         5.465547        -0.048465        -0.130162
 H         3.112170        -0.597398         1.666867
 H         3.658361         1.997926         1.024562
 H         2.838586         2.636436        -0.340257
