19
Iteration:  1976charge 0 multiplicity 1
 C         0.138100        -0.832364         0.553400
 C         1.526294        -0.210985         0.211665
 C         1.958103         0.492975        -1.231138
 C         3.332501         0.557596        -0.457340
 C         4.429201        -0.332580        -1.061081
 O         3.534147        -1.519680        -0.762976
 C         2.945429        -0.672425         0.325139
 C         3.110724         1.550749         0.676524
 O         1.784688         0.912077         1.269530
 H         0.004210        -1.210079         1.560288
 H        -0.610825        -0.065580         0.316320
 H        -0.074173        -1.644448        -0.171574
 H         1.943193        -0.449568        -1.919151
 H         1.546757         1.417091        -1.549221
 H         4.587233        -0.223164        -2.126827
 H         5.305708        -0.472456        -0.442851
 H         3.328000        -0.967505         1.349449
 H         3.796589         1.292861         1.554998
 H         2.942203         2.592322         0.682514
