19
Iteration:  1485
 C         0.268600        -0.809750         0.503242
 C         1.520864        -0.129572         0.152083
 C         1.897438         0.307599        -1.192642
 C         3.332134         0.461654        -0.466128
 C         4.444915        -0.389351        -0.890802
 O         3.724403        -1.609837        -0.369090
 C         2.935365        -0.728920         0.409643
 C         2.907820         1.665703         0.433245
 O         1.709509         1.111000         0.947751
 H         0.337008        -1.048923         1.614633
 H        -0.681298        -0.244201         0.336951
 H         0.185982        -1.818352         0.021669
 H         1.895725        -0.471599        -1.966780
 H         1.321628         1.114422        -1.594634
 H         4.618445        -0.522561        -1.999777
 H         5.352588        -0.075133        -0.339572
 H         3.059894        -0.790063         1.473791
 H         3.643638         1.860817         1.270447
 H         2.796028         2.631121         0.109236
