19
Iteration:  1174
 C         0.146207        -0.927700         0.622616
 C         1.417627        -0.142858         0.154706
 C         2.015454         0.082004        -1.276398
 C         3.333098         0.499577        -0.535698
 C         4.511192        -0.430477        -0.744362
 O         3.810739        -1.550075        -0.188370
 C         2.869165        -0.636714         0.600292
 C         2.910317         1.761307         0.200280
 O         1.651260         1.246304         0.707632
 H        -0.716979        -0.813917        -0.052090
 H         0.550279        -1.943844         0.769000
 H        -0.164573        -0.567656         1.672104
 H         2.244106        -0.896296        -1.792270
 H         1.533968         0.778501        -1.937168
 H         4.840499        -0.714629        -1.736576
 H         5.500607        -0.206835        -0.191690
 H         3.335820        -0.619082         1.586902
 H         3.529494         1.870159         1.044499
 H         2.670806         2.704995        -0.361345
