19
Iteration:   810charge 0 multiplicity 1
 C         0.146856        -0.731902         0.573743
 C         1.531491        -0.188415         0.176105
 C         2.103105        -0.247249        -1.217860
 C         3.314769         0.440615        -0.516319
 C         4.618478        -0.466169        -0.732304
 O         3.895507        -1.474224         0.153594
 C         2.942319        -0.519042         0.680257
 C         2.691465         1.832420        -0.072829
 O         1.498126         1.235631         0.505458
 H        -0.576121        -0.961497        -0.254144
 H         0.375684        -1.627295         1.204689
 H        -0.396636         0.062303         1.187205
 H         2.405826        -1.319107        -1.228691
 H         1.575835         0.159145        -2.135593
 H         4.906909        -0.930943        -1.676077
 H         5.523375         0.031518        -0.315849
 H         3.045232        -0.436573         1.763628
 H         3.295179         2.230988         0.818314
 H         2.521042         2.359714        -1.024278
