19
Iteration:   413
 C         0.224051        -0.925487         0.770784
 C         1.515273        -0.253481         0.139112
 C         2.148306        -0.441247        -1.271816
 C         3.295416         0.340278        -0.521135
 C         4.605931        -0.469138        -0.424408
 O         3.934232        -1.283703         0.511627
 C         2.927636        -0.255130         0.738647
 C         2.708558         1.748543        -0.468463
 O         1.399061         1.351418         0.100281
 H        -0.646286        -0.329252         0.836290
 H        -0.128379        -1.850827         0.218703
 H         0.406356        -1.182358         1.799822
 H         2.437965        -1.440995        -1.562124
 H         1.594026         0.010574        -2.078785
 H         4.714073        -1.022883        -1.405650
 H         5.506258         0.067480        -0.117400
 H         3.076798         0.227703         1.735987
 H         3.056732         2.558097         0.283954
 H         2.702767         2.148061        -1.480352
