19
Iteration:  3313charge 0 multiplicity 1
 C         0.213131        -0.733574         0.415650
 C         1.508703        -0.100200         0.239037
 C         1.872778         0.954933        -0.816948
 C         3.336436         0.649862        -0.259143
 C         4.162410        -0.099109        -1.289677
 O         3.350927        -1.288104        -1.364793
 C         2.881004        -0.865948        -0.081486
 C         3.384398         0.988963         1.210285
 O         1.995733         0.486569         1.568316
 H        -0.367349        -0.256068         1.208097
 H        -0.216789        -0.618305        -0.490052
 H         0.329568        -1.789516         0.729349
 H         1.740869         0.429117        -1.937029
 H         1.382886         1.977160        -0.748868
 H         4.337388         0.204679        -2.351926
 H         5.226564        -0.421873        -1.003042
 H         3.318507        -1.457695         0.733662
 H         4.115366         0.442310         1.804115
 H         3.431296         1.954809         1.346790
