19
Iteration:   205
 C         0.217716        -0.813540         0.665831
 C         1.511839        -0.230295         0.151841
 C         2.176824        -0.655361        -1.045745
 C         3.229762         0.304935        -0.625966
 C         4.600415        -0.295082        -0.459204
 O         3.982767        -1.299213         0.673833
 C         2.944773        -0.109594         0.818436
 C         2.700310         1.669911        -0.587773
 O         1.360398         1.252779        -0.048469
 H        -0.498999        -0.032604         0.991379
 H        -0.281313        -1.388794        -0.126570
 H         0.476136        -1.426301         1.550171
 H         2.524016        -1.700027        -0.987888
 H         1.626138        -0.354886        -1.971349
 H         5.151894        -0.868030        -1.283549
 H         5.287939         0.350943         0.043542
 H         3.035831         0.508308         1.759158
 H         3.259929         2.276730         0.270123
 H         2.500767         2.123203        -1.688366
