19
Iteration:  4081charge 0 multiplicity 1
 C         0.150676        -0.741493         0.401827
 C         1.499504        -0.125970         0.257269
 C         1.918287         1.078326        -0.672262
 C         3.449528         0.517923        -0.192735
 C         4.248332         0.088630        -1.409926
 O         3.187011        -1.105533        -1.492751
 C         2.850247        -0.845616        -0.180000
 C         3.432213         0.706933         1.303524
 O         2.072744         0.351253         1.589801
 H        -0.085375        -1.373822        -0.351526
 H        -0.028269        -1.200077         1.327742
 H        -0.618506        -0.000679         0.266391
 H         1.599123         1.112618        -1.779404
 H         1.356960         2.048429        -0.151755
 H         4.088197         0.723333        -2.245132
 H         5.222181        -0.330204        -1.377131
 H         3.225445        -1.637369         0.667192
 H         4.141981         0.046901         1.886990
 H         3.512839         1.709981         1.665610
