19
Iteration:  1299
 C         0.146117        -0.802272         0.584008
 C         1.493688        -0.145193         0.173346
 C         1.998263         0.091266        -1.260873
 C         3.260482         0.451958        -0.438218
 C         4.503288        -0.368361        -0.826397
 O         3.790333        -1.544008        -0.307394
 C         2.948844        -0.729459         0.547262
 C         2.988548         1.746597         0.273582
 O         1.588180         1.152588         0.812987
 H        -0.089861        -0.390073         1.592045
 H        -0.724465        -0.577067        -0.063368
 H         0.356315        -1.858452         0.559776
 H         2.257378        -0.722477        -1.982487
 H         1.454276         0.883481        -1.724727
 H         4.780526        -0.632303        -1.903064
 H         5.421351        -0.214384        -0.207468
 H         3.180718        -0.714353         1.598554
 H         3.552681         2.089012         1.238079
 H         2.837692         2.649852        -0.261635
