19
Iteration:  1241
 C         0.165137        -0.800875         0.558973
 C         1.440140        -0.145839         0.174331
 C         2.038881         0.098917        -1.218727
 C         3.303686         0.434946        -0.416982
 C         4.556592        -0.403968        -0.840368
 O         3.857346        -1.578886        -0.211105
 C         2.858500        -0.651315         0.531291
 C         2.842035         1.719513         0.206741
 O         1.678385         1.165173         0.806934
 H         0.183975        -1.902611         0.775886
 H        -0.218312        -0.249238         1.451136
 H        -0.742428        -0.719624        -0.129070
 H         2.202515        -0.722028        -1.841311
 H         1.561034         0.960088        -1.791181
 H         4.435140        -0.484828        -1.931149
 H         5.667762        -0.141019        -0.563227
 H         3.024993        -0.535435         1.624478
 H         3.470865         2.100925         1.058847
 H         2.545304         2.479308        -0.556484
