19
Iteration:  3102
 C         0.067596        -0.694812         0.572113
 C         1.444854        -0.130007         0.260287
 C         1.873726         0.916345        -0.747768
 C         3.360078         0.529811        -0.310379
 C         4.363106        -0.089681        -1.275146
 O         3.504692        -1.392332        -1.358260
 C         2.831501        -0.863277        -0.102947
 C         3.265920         1.132837         1.085612
 O         2.000257         0.516734         1.470569
 H        -0.133949        -1.427105        -0.128286
 H         0.067775        -1.094038         1.591265
 H        -0.668145         0.015905         0.496855
 H         1.718757         0.548461        -1.898408
 H         1.540099         1.998780        -0.691327
 H         4.644343         0.338286        -2.267111
 H         5.296900        -0.329597        -0.751123
 H         3.026744        -1.555075         0.717352
 H         3.942032         0.840280         1.875159
 H         3.163339         2.229398         1.031333
