19
Iteration:  3367charge 0 multiplicity 1
 C         0.226058        -0.704676         0.491313
 C         1.564407        -0.171525         0.297272
 C         1.984253         0.907771        -0.783914
 C         3.380109         0.526588        -0.205229
 C         4.327363        -0.077095        -1.325199
 O         3.263599        -1.214966        -1.528719
 C         2.796292        -0.923679        -0.095776
 C         3.218331         1.081250         1.257338
 O         2.003989         0.470293         1.557109
 H        -0.434253        -0.008980         0.078653
 H         0.032266        -1.566676         0.029942
 H         0.105919        -0.744833         1.533012
 H         1.729134         0.583048        -1.906470
 H         1.621218         1.966719        -0.683082
 H         4.291199         0.446534        -2.307267
 H         5.324461        -0.575374        -1.096076
 H         3.212944        -1.681499         0.565970
 H         3.972154         0.803962         1.953957
 H         3.054548         2.201543         1.303663
