19
Iteration:  3791charge 0 multiplicity 1
 C         0.077641        -0.747508         0.392501
 C         1.518785        -0.118670         0.305331
 C         2.033307         1.028749        -0.469584
 C         3.436394         0.446154        -0.156477
 C         4.226067        -0.037519        -1.413423
 O         3.165984        -0.990494        -1.628740
 C         2.831866        -0.905293        -0.218637
 C         3.429028         0.990353         1.277631
 O         2.061519         0.282752         1.581085
 H         0.036338        -1.714077        -0.042720
 H        -0.038782        -0.900441         1.381984
 H        -0.754211        -0.241629        -0.023535
 H         1.703864         0.748432        -1.688706
 H         1.899242         2.111843        -0.177306
 H         4.356559         0.530684        -2.367734
 H         5.117253        -0.591334        -1.198455
 H         3.049825        -1.899186         0.269070
 H         4.160163         0.525920         1.974154
 H         3.345020         2.057871         1.581044
