19
Iteration:  1450
 C         0.034671        -0.830412         0.519324
 C         1.441885        -0.144954         0.165469
 C         2.021288         0.156325        -1.176654
 C         3.308010         0.491677        -0.437197
 C         4.509253        -0.351066        -0.921196
 O         3.771841        -1.599433        -0.454364
 C         2.985483        -0.698040         0.501339
 C         2.982515         1.660219         0.390741
 O         1.648375         1.189116         0.960052
 H         0.348897        -1.782978         1.095496
 H        -0.432319        -0.168529         1.308368
 H        -0.621400        -1.014933        -0.338757
 H         2.133114        -0.798378        -1.849927
 H         1.534256         1.035583        -1.536242
 H         4.758725        -0.246502        -1.973074
 H         5.375799         0.001005        -0.290106
 H         3.448316        -0.803248         1.516665
 H         3.669208         1.518387         1.190038
 H         2.818813         2.605501        -0.148566
