19
Iteration:  1355
 C         0.239345        -0.894225         0.528231
 C         1.527134        -0.158816         0.216217
 C         1.977150         0.161880        -1.229871
 C         3.322444         0.513332        -0.536381
 C         4.425056        -0.391976        -0.834496
 O         3.696384        -1.590423        -0.317389
 C         2.969925        -0.589287         0.513236
 C         2.968651         1.686534         0.342585
 O         1.622135         1.158978         0.874162
 H        -0.420700        -0.228505        -0.085558
 H         0.189479        -1.922875         0.125589
 H        -0.097339        -0.774216         1.585173
 H         2.191282        -0.739767        -1.923345
 H         1.439603         0.956810        -1.678874
 H         4.702419        -0.540611        -1.950735
 H         5.264876        -0.345458        -0.117288
 H         3.213467        -0.571014         1.571527
 H         3.638139         1.693797         1.329973
 H         2.779561         2.632470        -0.189355
