19
Iteration:   818charge 0 multiplicity 1
 C         0.163926        -0.747584         0.586337
 C         1.439672        -0.163622         0.164082
 C         2.097231        -0.290843        -1.179339
 C         3.315641         0.471900        -0.532591
 C         4.568792        -0.432458        -0.702333
 O         3.871554        -1.477862         0.146136
 C         2.992512        -0.506734         0.630827
 C         2.732823         1.747381        -0.045606
 O         1.523435         1.265655         0.488665
 H        -0.265512        -1.271117        -0.302946
 H         0.374551        -1.442435         1.363257
 H        -0.544939         0.038453         0.966442
 H         2.549033        -1.281817        -1.444384
 H         1.674083         0.035473        -2.047436
 H         4.840021        -0.879452        -1.669808
 H         5.427145        -0.081845        -0.176164
 H         3.259583        -0.331465         1.705817
 H         3.303587         2.209190         0.771793
 H         2.488692         2.657492        -0.806859
