19
Iteration:  4607
 C         0.067975        -0.578948         0.506659
 C         1.507544        -0.073635         0.272806
 C         1.994040         0.938770        -0.698594
 C         3.343068         0.500686        -0.282925
 C         4.183758         0.101540        -1.372584
 O         3.350261        -1.097617        -1.572109
 C         2.817961        -0.914885        -0.144725
 C         3.417117         0.789722         1.274452
 O         2.051581         0.256140         1.618151
 H        -0.462837        -0.766948        -0.394551
 H         0.088623        -1.504464         1.001638
 H        -0.499558         0.039402         1.154806
 H         1.718184         0.862607        -1.785003
 H         1.650961         2.025214        -0.465559
 H         4.118648         0.711255        -2.271120
 H         5.239195        -0.136217        -1.038110
 H         3.228620        -1.590814         0.439567
 H         4.207241         0.112989         1.711909
 H         3.459770         1.723072         1.800367
