19
Iteration:   879
 C         0.261992        -0.814410         0.710492
 C         1.443302        -0.167879         0.086447
 C         2.088960        -0.098362        -1.392728
 C         3.333673         0.411886        -0.526411
 C         4.571325        -0.494333        -0.698679
 O         3.840574        -1.538298         0.128906
 C         2.925542        -0.470579         0.653425
 C         2.777197         1.789017        -0.077343
 O         1.482853         1.236274         0.624805
 H         0.383671        -1.409505         1.610668
 H        -0.533391        -0.041076         0.917719
 H        -0.143515        -1.484777        -0.045334
 H         2.579042        -0.980182        -1.773826
 H         1.713917         0.667412        -2.183425
 H         5.001489        -0.905272        -1.631873
 H         5.458670        -0.107042        -0.104935
 H         3.022188        -0.246839         1.706876
 H         3.255750         2.282091         0.798553
 H         2.415304         2.382267        -0.842073
