19
Iteration:  3970charge 0 multiplicity 1
 C         0.046786        -0.768437         0.429394
 C         1.487275        -0.068544         0.243222
 C         2.005424         1.120035        -0.624135
 C         3.390758         0.514578        -0.192046
 C         4.195305         0.085259        -1.437073
 O         3.352373        -1.172098        -1.483925
 C         2.745828        -0.931446        -0.199858
 C         3.486058         0.861654         1.282990
 O         2.034832         0.322319         1.617122
 H        -0.391801        -0.681048        -0.472721
 H         0.144830        -1.824705         0.647936
 H        -0.539935        -0.337544         1.212228
 H         1.747442         0.959015        -1.833102
 H         1.797584         2.277392        -0.305758
 H         3.957261         0.641468        -2.345352
 H         5.207961        -0.232057        -1.482144
 H         2.984127        -1.859720         0.420656
 H         4.295457         0.252275         1.808615
 H         3.468794         1.818812         1.746865
