19
Iteration:   645
 C         0.063611        -0.808969         0.630131
 C         1.506657        -0.232657         0.221569
 C         1.995299        -0.321068        -1.240508
 C         3.266595         0.375686        -0.675270
 C         4.578494        -0.382294        -0.519692
 O         4.070099        -1.401563         0.335428
 C         2.925244        -0.449032         0.737211
 C         2.803044         1.754544        -0.261373
 O         1.485963         1.258459         0.316824
 H        -0.503667        -0.996979        -0.309629
 H         0.124721        -1.646575         1.251554
 H        -0.409867        -0.022887         1.262501
 H         2.237048        -1.366599        -1.581402
 H         1.499416         0.147949        -2.065156
 H         5.062595        -0.832356        -1.419433
 H         5.317606         0.230299         0.080306
 H         3.214163         0.062641         1.647834
 H         3.529681         2.185600         0.540953
 H         2.523222         2.484542        -0.975575
