19
Iteration:  4572
 C         0.110086        -0.686126         0.455709
 C         1.453464        -0.169754         0.280864
 C         2.020277         1.018337        -0.580266
 C         3.447559         0.509526        -0.177745
 C         4.280949        -0.081397        -1.377922
 O         3.199944        -1.007483        -1.637135
 C         2.791091        -0.977167        -0.180295
 C         3.402254         1.003968         1.228837
 O         2.057032         0.275478         1.589072
 H        -0.476735        -0.488871        -0.355461
 H         0.249977        -1.704136         0.642622
 H        -0.352916        -0.148399         1.293761
 H         1.634037         0.962755        -1.736867
 H         1.743905         1.869041         0.076103
 H         4.537169         0.619773        -2.245506
 H         5.302421        -0.477101        -0.961352
 H         3.116906        -1.813234         0.374961
 H         4.084003         0.566311         2.011104
 H         3.133610         2.090361         1.427094
