19
Iteration:  4007charge 0 multiplicity 1
 C         0.065486        -0.608840         0.497170
 C         1.537248        -0.294147         0.288379
 C         1.940957         1.018310        -0.723785
 C         3.350031         0.579064        -0.209572
 C         4.282312         0.045252        -1.310399
 O         3.231737        -1.048350        -1.616538
 C         2.872071        -0.943432        -0.235372
 C         3.389785         0.895082         1.276657
 O         2.078209         0.250372         1.638448
 H        -0.498703        -0.867712        -0.510152
 H        -0.083482        -1.472464         1.166383
 H        -0.489801         0.264244         0.933887
 H         1.801908         0.898558        -1.740468
 H         1.674230         2.027167        -0.352477
 H         4.532232         0.663473        -2.162519
 H         5.199498        -0.492869        -0.839239
 H         3.204191        -1.679300         0.413534
 H         4.193351         0.294820         1.728493
 H         3.405926         2.007194         1.566020
