19
Iteration:   119
 C         0.215330        -0.890502         0.771147
 C         1.385030        -0.142179         0.103118
 C         2.158825        -0.699896        -1.137746
 C         3.281201         0.249152        -0.621266
 C         4.623750        -0.315977        -0.278407
 O         4.009568        -1.207919         0.685408
 C         2.900285        -0.119841         0.814697
 C         2.696442         1.675877        -0.673205
 O         1.407570         1.285226        -0.116124
 H         0.538333        -1.965505         0.814355
 H         0.095029        -0.562562         1.831805
 H        -0.770659        -0.754647         0.249459
 H         2.483181        -1.729254        -0.991166
 H         1.745570        -0.537845        -2.162417
 H         5.161821        -0.914094        -1.104593
 H         5.256533         0.416795         0.231554
 H         3.013507         0.553068         1.635796
 H         3.279278         2.364588        -0.041699
 H         2.544756         2.016277        -1.742172
