19
Iteration:  1121
 C         0.114601        -0.770964         0.595896
 C         1.494883        -0.291057         0.224907
 C         2.026791        -0.051402        -1.222801
 C         3.346301         0.481043        -0.524544
 C         4.573528        -0.382941        -0.800921
 O         3.796066        -1.602457        -0.121861
 C         2.997389        -0.512144         0.491170
 C         2.861858         1.764302         0.248362
 O         1.542537         1.213612         0.679408
 H        -0.425526        -0.037792         1.190821
 H        -0.478450        -0.895245        -0.305066
 H         0.059970        -1.716842         1.188513
 H         2.360339        -0.964113        -1.768626
 H         1.585152         0.612486        -1.959111
 H         4.773357        -0.709270        -1.799333
 H         5.364340        -0.087633        -0.184589
 H         3.429701        -0.540322         1.445132
 H         3.464249         2.304607         1.076346
 H         2.619914         2.598225        -0.378799
