19
Iteration:  4488
 C         0.080420        -0.594144         0.473965
 C         1.528896        -0.132236         0.266936
 C         1.950234         1.012881        -0.528489
 C         3.421585         0.494844        -0.173502
 C         4.179723         0.026425        -1.487088
 O         3.368383        -1.067918        -1.608460
 C         2.783844        -0.955302        -0.183691
 C         3.358015         0.860306         1.281633
 O         2.073646         0.244999         1.606028
 H        -0.201605        -1.404935        -0.356476
 H        -0.109862        -0.897596         1.527735
 H        -0.483191         0.395674         0.248515
 H         1.616305         0.891191        -1.526951
 H         1.695684         2.037356        -0.170777
 H         4.201881         0.647502        -2.344611
 H         5.164071        -0.218849        -1.165388
 H         3.128734        -2.045365         0.287994
 H         4.208453         0.434761         1.864929
 H         3.233010         1.943265         1.430242
