19
Iteration:  1993
 C         0.177531        -0.785326         0.440276
 C         1.520902        -0.143862         0.269062
 C         1.815518         0.372139        -1.055680
 C         3.294904         0.585613        -0.439664
 C         4.383998        -0.291252        -1.058195
 O         3.587745        -1.493099        -0.764430
 C         2.927566        -0.794182         0.273695
 C         3.160947         1.427846         0.784262
 O         1.835745         1.005627         1.131015
 H        -0.054260        -0.735952         1.521740
 H        -0.660464        -0.392720        -0.212553
 H         0.211003        -1.869020         0.123940
 H         1.909798        -0.267711        -1.855793
 H         1.164630         1.258569        -1.332715
 H         4.745146        -0.241770        -2.110318
 H         5.339938        -0.186204        -0.459217
 H         3.320327        -0.883260         1.275673
 H         3.928959         1.288676         1.586646
 H         3.097096         2.560600         0.595781
