19
Iteration:   750
 C         0.230110        -0.845750         0.658133
 C         1.480656        -0.159346         0.145401
 C         2.030097        -0.350678        -1.298801
 C         3.267305         0.394189        -0.584373
 C         4.575532        -0.427016        -0.541171
 O         3.873604        -1.453644         0.199117
 C         2.926276        -0.379905         0.586931
 C         2.795937         1.736876        -0.098339
 O         1.507343         1.356224         0.457720
 H        -0.291720        -0.388011         1.511925
 H        -0.487305        -1.038561        -0.189005
 H         0.547778        -1.855111         0.928009
 H         2.413360        -1.351825        -1.413772
 H         1.408945         0.040689        -2.130597
 H         4.909662        -0.866241        -1.495737
 H         5.419064         0.012571        -0.025530
 H         3.117263        -0.024643         1.632476
 H         3.463020         1.968054         0.722011
 H         2.884897         2.640333        -0.891191
