19
Iteration:  4536
 C         0.179353        -0.711379         0.406119
 C         1.532312        -0.050836         0.270301
 C         1.920191         0.992704        -0.640636
 C         3.382896         0.633838        -0.195285
 C         4.265357        -0.012711        -1.349174
 O         3.216445        -1.055662        -1.581385
 C         2.669419        -0.903535        -0.151382
 C         3.472753         0.803716         1.303158
 O         2.052338         0.313195         1.601250
 H        -0.198454        -0.952929        -0.616464
 H         0.445772        -1.719927         0.866296
 H        -0.519793        -0.252366         1.109810
 H         1.776766         0.843228        -1.667079
 H         1.612558         1.976377        -0.511149
 H         4.335147         0.573569        -2.332425
 H         5.235991        -0.575226        -1.118249
 H         3.047484        -1.812949         0.470691
 H         4.232491         0.107429         1.650048
 H         3.810780         1.853728         1.669203
