19
Iteration:   972
 C         0.268441        -0.721704         0.622166
 C         1.542250        -0.234953         0.165663
 C         2.045348        -0.058633        -1.323966
 C         3.291921         0.472822        -0.569760
 C         4.493253        -0.457913        -0.705604
 O         3.867587        -1.528799         0.016600
 C         2.901183        -0.503635         0.605320
 C         2.699259         1.706573         0.053564
 O         1.591502         1.174631         0.679046
 H        -0.464185        -0.679347        -0.200084
 H         0.240524        -1.774368         0.943566
 H        -0.118498        -0.080605         1.425333
 H         2.365969        -1.002447        -1.686585
 H         1.711681         0.653725        -2.105169
 H         4.884170        -0.729955        -1.713926
 H         5.391432        -0.100865        -0.163994
 H         2.997494        -0.292560         1.719563
 H         3.443725         1.925735         0.710409
 H         2.458011         2.502805        -0.653515
