19
Iteration:  4267charge 0 multiplicity 1
 C         0.152802        -0.724588         0.354575
 C         1.465356        -0.178159         0.301616
 C         2.015272         1.015003        -0.553646
 C         3.355877         0.428789        -0.175583
 C         4.240818         0.073103        -1.354942
 O         3.197302        -1.028625        -1.591565
 C         2.737269        -0.943791        -0.198710
 C         3.444033         0.892448         1.222418
 O         2.096788         0.358421         1.625345
 H         0.183745        -1.487191        -0.390865
 H         0.115365        -1.129324         1.408072
 H        -0.626230         0.074360         0.018828
 H         1.788871         0.887891        -1.520301
 H         1.742876         2.069219        -0.119753
 H         4.422973         0.660779        -2.281903
 H         5.209930        -0.402395        -0.952445
 H         3.029307        -1.792315         0.256715
 H         4.189499         0.367631         1.918598
 H         3.450048         1.897271         1.527362
