19
Iteration:   267charge 0 multiplicity 1
 C         0.286742        -0.762098         0.794507
 C         1.478172        -0.200076         0.126390
 C         2.247863        -0.562961        -1.235219
 C         3.281542         0.382193        -0.532416
 C         4.583696        -0.422162        -0.390804
 O         3.978749        -1.257720         0.577505
 C         2.858134        -0.207084         0.849697
 C         2.612584         1.698470        -0.590923
 O         1.381398         1.217693        -0.017755
 H        -0.204245        -1.465704         0.016152
 H         0.563572        -1.428528         1.604423
 H        -0.490715        -0.047767         1.148425
 H         2.562124        -1.597209        -1.378128
 H         1.860976        -0.155979        -2.217529
 H         4.891903        -1.000544        -1.280846
 H         5.527280         0.122297        -0.052089
 H         2.889112         0.034426         1.967250
 H         3.215989         2.320289         0.139369
 H         2.388902         1.946483        -1.585887
