19
Iteration:  4343charge 0 multiplicity 1
 C         0.060538        -0.616518         0.420001
 C         1.469634        -0.167880         0.288028
 C         1.902339         0.958477        -0.572877
 C         3.385888         0.419108        -0.179973
 C         4.312296         0.060739        -1.363193
 O         3.302214        -1.032224        -1.605255
 C         2.781026        -0.968429        -0.199020
 C         3.410383         0.943817         1.221377
 O         2.122680         0.271522         1.592635
 H        -0.508093        -0.318072        -0.475756
 H         0.043029        -1.747861         0.637437
 H        -0.363122         0.028133         1.336781
 H         1.553675         0.873198        -1.472137
 H         1.570865         1.900784        -0.139971
 H         4.454070         0.587945        -2.322089
 H         5.274051        -0.443891        -1.108142
 H         3.065094        -1.770197         0.571334
 H         4.183791         0.661211         2.033762
 H         3.221088         2.018665         1.317795
