19
Iteration:  1065
 C         0.131439        -0.839353         0.571955
 C         1.452827        -0.237994         0.108555
 C         1.984344         0.048525        -1.318505
 C         3.313443         0.459233        -0.501049
 C         4.545231        -0.537475        -0.756836
 O         3.862441        -1.552419        -0.013754
 C         3.060156        -0.508551         0.596039
 C         2.795110         1.827298         0.086980
 O         1.590762         1.213342         0.741101
 H         0.387768        -1.414400         1.473918
 H        -0.540560        -0.071787         0.934145
 H        -0.448018        -1.535208        -0.127076
 H         2.001261        -0.922353        -1.970942
 H         1.624794         0.889206        -1.840427
 H         4.819405        -0.783804        -1.767788
 H         5.440190        -0.299711        -0.222784
 H         3.370099        -0.519994         1.593221
 H         3.473361         2.105408         0.982626
 H         2.388113         2.626493        -0.564595
