19
Iteration:    87charge 0 multiplicity 1
 C         0.211959        -0.772836         0.739795
 C         1.543610        -0.293593         0.158994
 C         2.215521        -0.607251        -1.097676
 C         3.330497         0.392746        -0.571820
 C         4.683796        -0.410923        -0.354195
 O         3.978469        -1.217143         0.777108
 C         2.903634        -0.138539         0.862214
 C         2.559845         1.730911        -0.749756
 O         1.358721         1.138229        -0.177921
 H        -0.427122        -1.307736         0.003899
 H         0.434146        -1.288583         1.694131
 H        -0.384340         0.154109         0.942725
 H         2.647088        -1.595125        -1.162559
 H         1.590195        -0.317806        -1.960000
 H         5.009385        -1.054897        -1.243962
 H         5.572855         0.116732         0.019785
 H         2.816140         0.319809         1.813532
 H         2.815189         2.607593        -0.251499
 H         2.302601         2.017963        -1.719629
