19
Iteration:   863charge 0 multiplicity 1
 C         0.214031        -0.855391         0.664980
 C         1.517000        -0.182241         0.113786
 C         2.019467        -0.050077        -1.324967
 C         3.308230         0.448539        -0.540673
 C         4.537030        -0.474521        -0.569364
 O         3.917439        -1.547457         0.161072
 C         2.883656        -0.531653         0.606956
 C         2.764556         1.778309        -0.069448
 O         1.564895         1.249008         0.499784
 H         0.612725        -1.768665         1.186358
 H        -0.165751        -0.164587         1.435134
 H        -0.562741        -1.218942        -0.072704
 H         1.885015        -1.014816        -1.854369
 H         1.493892         0.688345        -1.898390
 H         4.703454        -0.707851        -1.625357
 H         5.423367        -0.118820        -0.065045
 H         3.122736        -0.229590         1.659241
 H         3.446456         2.357808         0.639806
 H         2.554596         2.544044        -0.980615
