19
Iteration:  3786charge 0 multiplicity 1
 C         0.121088        -0.744384         0.393531
 C         1.511653        -0.123968         0.315381
 C         2.023957         1.044489        -0.570983
 C         3.442156         0.470454        -0.176332
 C         4.236042        -0.009146        -1.404286
 O         3.146072        -0.983642        -1.630659
 C         2.844479        -0.928011        -0.182516
 C         3.451947         0.952744         1.277657
 O         2.016935         0.272110         1.586043
 H         0.120977        -1.835473        -0.062803
 H        -0.155787        -0.892890         1.558289
 H        -0.819953        -0.080968         0.170739
 H         1.782158         0.874695        -1.508029
 H         1.894740         2.037232        -0.188591
 H         4.373439         0.589423        -2.293982
 H         5.109438        -0.677378        -1.156667
 H         3.121500        -1.787775         0.429293
 H         4.159547         0.393762         1.904484
 H         3.380750         1.997187         1.580082
