19
Iteration:   823charge 0 multiplicity 1
 C         0.163419        -0.764536         0.591604
 C         1.433786        -0.156237         0.149812
 C         2.101365        -0.311745        -1.187292
 C         3.315646         0.451112        -0.547310
 C         4.526915        -0.417011        -0.666577
 O         3.885228        -1.491193         0.120593
 C         2.998682        -0.467553         0.650607
 C         2.776846         1.732375        -0.045099
 O         1.513028         1.279311         0.485107
 H        -0.100165        -1.459839        -0.221741
 H         0.243694        -1.428138         1.523697
 H        -0.591515        -0.022950         0.839319
 H         2.407312        -1.285621        -1.543749
 H         1.586717         0.168246        -2.160866
 H         4.741492        -0.749096        -1.695267
 H         5.437730        -0.170035        -0.030358
 H         3.307631        -0.133613         1.644651
 H         3.402621         2.270081         0.749688
 H         2.546661         2.596935        -0.574109
