19
Iteration:  4715charge 0 multiplicity 1
 C         0.162722        -0.743008         0.445002
 C         1.530661        -0.093936         0.312370
 C         1.950779         1.024535        -0.565383
 C         3.406538         0.466731        -0.252667
 C         4.219281         0.005231        -1.365317
 O         3.231494        -1.046867        -1.584061
 C         2.769509        -0.871069        -0.158179
 C         3.408054         0.809652         1.251068
 O         2.040258         0.359582         1.536006
 H        -0.099267        -1.037332        -0.533153
 H         0.165454        -1.526575         1.120291
 H        -0.557082         0.031178         0.682668
 H         1.761721         0.909398        -1.610690
 H         1.824887         2.006506        -0.054167
 H         4.305435         0.794616        -2.128424
 H         5.224107        -0.491370        -1.126853
 H         3.224478        -1.789618         0.434959
 H         4.096859         0.209260         1.950395
 H         3.483981         1.889986         1.580263
