19
Iteration:  4088charge 0 multiplicity 1
 C         0.172671        -0.711885         0.374977
 C         1.538623        -0.132479         0.281382
 C         1.923061         1.068770        -0.653563
 C         3.392032         0.526029        -0.174507
 C         4.187737         0.072592        -1.410817
 O         3.230291        -1.113738        -1.552895
 C         2.791388        -0.891738        -0.164153
 C         3.480766         0.736424         1.308191
 O         2.033105         0.371828         1.642605
 H         0.146613        -1.419715        -0.569896
 H        -0.069178        -1.410126         1.283615
 H        -0.639362         0.079330         0.346975
 H         1.630625         1.089050        -1.775151
 H         1.590783         1.936792        -0.288665
 H         4.171885         0.722120        -2.395041
 H         5.250667        -0.254108        -1.241320
 H         3.120313        -1.626536         0.625514
 H         4.310860         0.142267         1.750729
 H         3.588461         1.774981         1.647489
