19
Iteration:  1422charge 0 multiplicity 1
 C         0.226535        -0.673917         0.579946
 C         1.553328        -0.220211         0.107165
 C         1.978191         0.130785        -1.262668
 C         3.349090         0.556400        -0.385130
 C         4.502558        -0.435187        -0.912259
 O         3.770012        -1.569426        -0.402118
 C         2.926794        -0.688855         0.516538
 C         2.860775         1.705221         0.408194
 O         1.604702         1.030194         0.914180
 H         0.072860        -1.693669         0.314849
 H         0.079726        -0.444251         1.620339
 H        -0.498862         0.083308         0.134552
 H         2.094225        -0.629230        -1.997504
 H         1.330229         0.992177        -1.601837
 H         4.551555        -0.428804        -2.045823
 H         5.451024        -0.178074        -0.396218
 H         3.233427        -0.954012         1.522282
 H         3.487711         1.910782         1.378498
 H         2.593399         2.655741        -0.175123
