19
Iteration:  3766charge 0 multiplicity 1
 C         0.238653        -0.697958         0.483237
 C         1.555211        -0.168521         0.224548
 C         1.950613         1.043721        -0.691380
 C         3.357025         0.538887        -0.200428
 C         4.208069         0.023646        -1.325235
 O         3.198073        -1.032185        -1.572307
 C         2.774000        -0.833078        -0.213667
 C         3.374455         0.707136         1.316432
 O         2.090145         0.353353         1.605619
 H        -0.017285        -1.556664        -0.307176
 H         0.044633        -1.102907         1.543337
 H        -0.567931         0.147899         0.308093
 H         1.891510         0.831539        -1.818880
 H         1.543853         1.979262        -0.367093
 H         4.233619         0.610161        -2.224310
 H         5.171128        -0.395759        -1.049060
 H         3.131938        -1.709031         0.367697
 H         4.089011         0.126307         1.764213
 H         3.523847         1.744019         1.681394
