19
Iteration:     8
 C         0.225730        -0.838969         0.731368
 C         1.481867        -0.296276         0.151472
 C         2.256534        -0.660822        -1.061464
 C         3.325928         0.263934        -0.611239
 C         4.680641        -0.324630        -0.321011
 O         3.978058        -1.118070         0.825077
 C         2.871079        -0.093693         0.823443
 C         2.617086         1.593814        -0.813426
 O         1.354236         1.246802        -0.174728
 H        -0.224777        -0.133205         1.524900
 H        -0.590503        -0.831588        -0.055352
 H         0.399870        -1.858581         1.161506
 H         2.278604        -1.767657        -1.081567
 H         1.705978        -0.292475        -1.974009
 H         5.247520        -1.012099        -1.077103
 H         5.266289         0.484697         0.130054
 H         2.808451         0.620917         1.647966
 H         3.007012         2.285289        -0.087822
 H         2.436231         1.925066        -1.810719
