19
Iteration:  3613
 C         0.135439        -0.746173         0.467572
 C         1.522173        -0.111791         0.259260
 C         1.974833         1.016930        -0.661619
 C         3.430329         0.624129        -0.216628
 C         4.263577        -0.068550        -1.340877
 O         3.218007        -1.088842        -1.500140
 C         2.801675        -0.786804        -0.221737
 C         3.376766         0.841062         1.283487
 O         2.023567         0.280156         1.557762
 H        -0.368150        -0.367589         1.391191
 H        -0.431355        -0.638994        -0.326393
 H         0.194267        -1.765836         0.693281
 H         1.791294         0.604987        -1.739590
 H         1.548289         2.145002        -0.702016
 H         4.355416         0.425327        -2.322433
 H         5.284524        -0.460140        -1.108146
 H         3.266092        -1.524822         0.487864
 H         4.297179         0.437626         1.931384
 H         3.289863         2.033864         1.493753
