19
Iteration:  2683
 C         0.211008        -0.654491         0.535649
 C         1.567370        -0.171423         0.166282
 C         1.959642         0.754034        -1.037856
 C         3.308076         0.604406        -0.361511
 C         4.302058        -0.188557        -1.163418
 O         3.416943        -1.447631        -1.108318
 C         2.991290        -0.848687         0.128881
 C         3.095824         1.290058         1.008644
 O         1.910931         0.596709         1.391585
 H        -0.369999         0.032757         1.343801
 H        -0.374227        -0.726158        -0.391273
 H         0.268470        -1.707738         0.930394
 H         1.793780         0.233431        -1.873730
 H         1.568946         1.704533        -1.009977
 H         4.416714        -0.025451        -2.201749
 H         5.222757        -0.370949        -0.653559
 H         3.458137        -1.289538         0.993172
 H         3.868480         1.208378         1.796447
 H         2.832961         2.303510         0.772508
