19
Iteration:  4167
 C         0.079573        -0.659263         0.565104
 C         1.471453        -0.124421         0.270572
 C         1.899898         1.045530        -0.727200
 C         3.343724         0.480427        -0.216927
 C         4.321692         0.045181        -1.327047
 O         3.377972        -1.080741        -1.607173
 C         2.752873        -0.919904        -0.220357
 C         3.405185         0.827145         1.253793
 O         2.033141         0.301142         1.594763
 H        -0.509559        -0.354334        -0.314948
 H         0.111933        -1.766621         0.796234
 H        -0.185004        -0.030954         1.491423
 H         1.752328         0.787536        -1.799747
 H         1.637223         1.997345        -0.347764
 H         4.440666         0.751818        -2.219904
 H         5.290836        -0.333240        -0.926414
 H         3.109853        -1.689725         0.573936
 H         4.124691         0.096896         1.771721
 H         3.508709         1.852067         1.546634
