19
Iteration:  1372charge 0 multiplicity 1
 C         0.183009        -0.818985         0.464123
 C         1.518529        -0.142576         0.176692
 C         1.872655         0.145348        -1.200919
 C         3.241082         0.460447        -0.479691
 C         4.532018        -0.407684        -0.848120
 O         3.755909        -1.562538        -0.332435
 C         2.914663        -0.702488         0.496381
 C         2.988740         1.666526         0.381082
 O         1.676461         1.225444         0.883949
 H        -0.454993        -1.050774        -0.419247
 H         0.656369        -1.803873         0.761065
 H        -0.199981        -0.657979         1.471454
 H         1.872907        -0.771538        -1.755455
 H         1.407863         0.981574        -1.793413
 H         4.780145        -0.465776        -1.880333
 H         5.330793        -0.015221        -0.189873
 H         3.301211        -0.583301         1.551016
 H         3.719912         1.843508         1.105349
 H         2.812460         2.697936         0.018869
