19
Iteration:  1464charge 0 multiplicity 1
 C         0.071716        -0.889136         0.551429
 C         1.444434        -0.170529         0.263188
 C         1.927958         0.260055        -1.214286
 C         3.312295         0.427768        -0.461876
 C         4.509668        -0.360670        -0.886492
 O         3.841371        -1.564419        -0.473074
 C         2.871420        -0.680736         0.499579
 C         3.098750         1.660252         0.382383
 O         1.641296         1.189424         0.944730
 H         0.157642        -1.719133         1.289400
 H        -0.779454        -0.230069         0.807860
 H        -0.244841        -1.374907        -0.411378
 H         1.910757        -0.539006        -1.938608
 H         1.519325         1.101254        -1.742147
 H         4.711963        -0.520838        -1.994625
 H         5.465505        -0.239335        -0.290824
 H         3.137253        -0.782455         1.528787
 H         3.765453         1.966473         1.248857
 H         2.956949         2.561134        -0.080693
