19
Iteration:   370charge 0 multiplicity 1
 C         0.266858        -0.737652         0.688496
 C         1.516450        -0.194500         0.152721
 C         2.109378        -0.567157        -1.196349
 C         3.320889         0.390806        -0.572589
 C         4.622140        -0.400253        -0.412192
 O         3.962123        -1.300500         0.506294
 C         3.002963        -0.276381         0.762434
 C         2.652499         1.630216        -0.445243
 O         1.309362         1.258492         0.095811
 H         0.024548        -0.427715         1.647490
 H        -0.582174        -0.404327         0.000580
 H         0.374425        -1.808380         0.660835
 H         2.396414        -1.601676        -1.336464
 H         1.626039        -0.192803        -2.078619
 H         5.041832        -0.891225        -1.329990
 H         5.315505         0.099799         0.226400
 H         3.211559         0.389570         1.636134
 H         3.114055         2.408868         0.114111
 H         2.392686         2.154720        -1.327885
