19
Iteration:   906charge 0 multiplicity 1
 C         0.223582        -0.799635         0.617446
 C         1.519542        -0.198730         0.165318
 C         1.981074        -0.191327        -1.245011
 C         3.332781         0.456204        -0.476431
 C         4.516735        -0.434469        -0.672631
 O         3.844398        -1.554871        -0.002678
 C         2.963840        -0.471357         0.688307
 C         2.808183         1.802674         0.021361
 O         1.547077         1.249453         0.489827
 H        -0.169788        -0.475972         1.589208
 H        -0.458587        -0.429677        -0.147257
 H         0.300461        -1.921871         0.629845
 H         2.342156        -1.183188        -1.603256
 H         1.452856         0.401660        -1.947388
 H         4.748134        -0.729165        -1.719921
 H         5.438011        -0.089982        -0.187027
 H         3.223719        -0.304214         1.774152
 H         3.254393         2.197206         0.923355
 H         2.611953         2.650575        -0.717189
