19
Iteration:  2932
 C         0.096701        -0.710675         0.532271
 C         1.540718        -0.170455         0.240843
 C         1.993939         0.830032        -0.942208
 C         3.331799         0.535261        -0.252048
 C         4.265466        -0.115289        -1.315882
 O         3.432509        -1.335497        -1.272590
 C         2.877749        -0.944516         0.054955
 C         3.257182         1.230616         1.139366
 O         1.936932         0.544352         1.455956
 H        -0.266157        -0.301217         1.485469
 H        -0.582059        -0.260861        -0.134398
 H         0.020611        -1.781081         0.344403
 H         1.972514         0.279463        -1.864057
 H         1.604568         1.994259        -1.182344
 H         4.212502         0.378065        -2.303891
 H         5.339032        -0.326999        -0.979850
 H         3.497007        -1.368898         0.880723
 H         4.017413         1.107273         1.914397
 H         3.065347         2.247370         0.978982
