19
Iteration:  2838charge 0 multiplicity 1
 C         0.116893        -0.707912         0.544692
 C         1.534150        -0.188582         0.196522
 C         2.003155         0.774290        -0.946161
 C         3.389555         0.624704        -0.334129
 C         4.307754        -0.147441        -1.246406
 O         3.390385        -1.334316        -1.209222
 C         2.890730        -0.877455         0.043820
 C         3.206618         1.192901         1.101681
 O         1.908775         0.624544         1.399202
 H         0.257068        -1.828919         0.642435
 H        -0.054522        -0.576629         1.663400
 H        -0.758551        -0.475271        -0.096089
 H         1.908349         0.228201        -1.866760
 H         1.660001         1.699337        -1.090992
 H         4.364029         0.160461        -2.277410
 H         5.264830        -0.382288        -0.853189
 H         3.352899        -1.367039         0.886907
 H         3.925683         0.736086         1.829073
 H         3.060116         2.296705         1.356234
