19
Iteration:   891charge 0 multiplicity 1
 C         0.205431        -0.797072         0.655141
 C         1.513718        -0.169339         0.140537
 C         2.162849        -0.152509        -1.265160
 C         3.336724         0.470780        -0.552668
 C         4.586114        -0.496761        -0.691421
 O         3.789102        -1.464628         0.078555
 C         2.916643        -0.505533         0.594490
 C         2.743105         1.751171        -0.005839
 O         1.492750         1.231697         0.583229
 H         0.447510        -0.906155         1.711210
 H        -0.691287        -0.200309         0.525412
 H         0.072065        -1.776480         0.234160
 H         2.211039        -1.194583        -1.652388
 H         1.682217         0.438733        -2.072576
 H         4.766819        -0.791674        -1.749155
 H         5.505612        -0.270722        -0.094622
 H         3.143317        -0.274081         1.639604
 H         3.428526         2.227981         0.643587
 H         2.501389         2.458269        -0.702146
