19
Iteration:  3323
 C         0.197074        -0.804402         0.415225
 C         1.544251        -0.138823         0.238878
 C         1.877455         0.941207        -0.781196
 C         3.354922         0.523975        -0.236873
 C         4.226599        -0.064628        -1.335028
 O         3.311994        -1.230458        -1.355876
 C         2.811066        -0.877429        -0.045405
 C         3.370998         1.006178         1.186025
 O         2.042577         0.559015         1.540189
 H        -0.453340        -0.143429         0.924457
 H        -0.259613        -0.814595        -0.510707
 H         0.142481        -1.794809         0.785279
 H         1.756310         0.586361        -1.934053
 H         1.509217         1.996093        -0.685506
 H         4.290187         0.529560        -2.294183
 H         5.199715        -0.439961        -0.879698
 H         3.155140        -1.557546         0.735013
 H         4.071996         0.484730         1.785343
 H         3.480542         2.041874         1.385211
