19
Iteration:  2804charge 0 multiplicity 1
 C         0.102377        -0.643121         0.476718
 C         1.532878        -0.128616         0.315384
 C         1.761740         0.750190        -0.858885
 C         3.344562         0.431643        -0.253207
 C         4.365738        -0.130845        -1.190686
 O         3.555860        -1.395319        -1.318613
 C         2.848618        -0.968898         0.050961
 C         3.212730         1.284795         0.993584
 O         1.962849         0.684815         1.426969
 H         0.236357        -1.417960        -0.370405
 H         0.041695        -1.164068         1.435699
 H        -0.858087        -0.102001         0.321774
 H         1.635323         0.319646        -1.737563
 H         1.566676         1.716359        -0.829523
 H         4.404251         0.385062        -2.110324
 H         5.349279        -0.240084        -0.797761
 H         3.231594        -1.566254         0.881774
 H         4.005629         1.041051         1.756153
 H         3.221227         2.428474         0.867856
