19
Iteration:  1727
 C         0.134518        -0.725488         0.494260
 C         1.515726        -0.186133         0.253080
 C         1.890398         0.198437        -1.167527
 C         3.278975         0.498261        -0.469643
 C         4.376842        -0.320048        -0.991229
 O         3.745911        -1.539761        -0.676148
 C         3.018174        -0.716434         0.427158
 C         3.055909         1.566164         0.626567
 O         1.709005         1.109592         1.084073
 H         0.070827        -1.147825         1.508613
 H        -0.577148         0.125788         0.350449
 H        -0.103709        -1.579050        -0.183780
 H         1.994701        -0.695081        -1.808194
 H         1.363699         1.014177        -1.617554
 H         4.595146        -0.150820        -2.054063
 H         5.243489        -0.194621        -0.377553
 H         3.382071        -1.016516         1.383476
 H         3.597600         1.270965         1.474974
 H         3.065640         2.664520         0.290230
