19
Iteration:  3622
 C         0.131041        -0.800517         0.485758
 C         1.510447        -0.113399         0.255651
 C         2.025814         1.100739        -0.737781
 C         3.397851         0.588879        -0.220054
 C         4.250852        -0.065424        -1.386370
 O         3.241224        -1.085042        -1.499704
 C         2.787022        -0.807607        -0.147959
 C         3.419010         0.847231         1.278975
 O         1.993678         0.286102         1.553546
 H        -0.440700        -0.115954         1.163615
 H        -0.565977        -0.937172        -0.317173
 H         0.373368        -1.818431         0.877256
 H         1.818515         0.805639        -1.732622
 H         1.716890         2.155840        -0.377523
 H         4.250239         0.541785        -2.245908
 H         5.251301        -0.387431        -1.063760
 H         3.139466        -1.455867         0.670210
 H         4.189018         0.269912         1.729962
 H         3.395715         1.901641         1.646232
