19
Iteration:  4545charge 0 multiplicity 1
 C         0.175816        -0.744365         0.411753
 C         1.493981        -0.093812         0.316977
 C         1.935887         1.032513        -0.686215
 C         3.400104         0.545324        -0.183900
 C         4.254279        -0.041387        -1.333647
 O         3.167245        -1.047314        -1.585462
 C         2.756496        -0.874816        -0.258181
 C         3.481573         0.837498         1.292570
 O         2.073369         0.341383         1.635816
 H        -0.281904        -0.685895        -0.679492
 H         0.317714        -1.846193         0.729799
 H        -0.448736        -0.196124         1.143417
 H         1.666347         0.783721        -1.611854
 H         1.636359         2.024470        -0.400686
 H         4.531766         0.560418        -2.192342
 H         5.136776        -0.476322        -0.888404
 H         3.154346        -1.798795         0.441940
 H         4.159008         0.272237         1.903384
 H         3.450309         1.905951         1.588856
