19
Iteration:  3484charge 0 multiplicity 1
 C         0.162833        -0.763816         0.366503
 C         1.571678        -0.092038         0.349679
 C         1.915169         0.920454        -0.657282
 C         3.381702         0.488440        -0.254881
 C         4.340746        -0.056058        -1.293890
 O         3.188453        -1.149502        -1.573167
 C         2.805434        -0.912484        -0.147230
 C         3.328381         1.032174         1.227236
 O         2.058107         0.456468         1.606135
 H         0.260465        -1.886570         0.159025
 H        -0.287976        -0.775456         1.546427
 H        -0.463269        -0.190672        -0.298579
 H         1.731670         0.769750        -1.721744
 H         1.733262         1.916380        -0.456055
 H         4.538785         0.619592        -2.149091
 H         5.141413        -0.588855        -0.803881
 H         3.126821        -1.714403         0.546698
 H         4.119024         0.681888         1.856419
 H         3.234370         2.034791         1.264633
