19
Iteration:  1117
 C         0.104959        -0.782523         0.576761
 C         1.487364        -0.296289         0.215416
 C         2.012548        -0.067995        -1.238112
 C         3.344241         0.505043        -0.507221
 C         4.564512        -0.326991        -0.811648
 O         3.797218        -1.605734        -0.121865
 C         2.995773        -0.559053         0.526066
 C         2.917438         1.744672         0.230104
 O         1.536317         1.248833         0.693521
 H        -0.444986        -0.128178         1.287645
 H        -0.614637        -0.784533        -0.276249
 H         0.083448        -1.794962         1.076870
 H         2.417217        -1.027441        -1.740014
 H         1.473453         0.500168        -1.986958
 H         4.707222        -0.750841        -1.803180
 H         5.473596        -0.150214        -0.147254
 H         3.514045        -0.375221         1.546306
 H         3.413657         2.183628         1.006784
 H         2.673628         2.622616        -0.435923
