19
Iteration:  1367
 C         0.234002        -0.857414         0.453194
 C         1.516287        -0.138263         0.213606
 C         1.916404         0.159605        -1.220521
 C         3.234938         0.473726        -0.489462
 C         4.483489        -0.379817        -0.845582
 O         3.711833        -1.566257        -0.309234
 C         2.947962        -0.684937         0.495502
 C         2.932853         1.634477         0.397068
 O         1.702759         1.226255         0.863515
 H        -0.573549        -0.762795        -0.292392
 H         0.458820        -1.919339         0.568437
 H        -0.124726        -0.590257         1.468005
 H         1.864725        -0.813195        -1.777356
 H         1.399342         0.929869        -1.799854
 H         4.923247        -0.606882        -1.876576
 H         5.306477         0.007530        -0.226973
 H         3.451233        -0.610649         1.457263
 H         3.748075         1.843627         1.213063
 H         2.873655         2.661918        -0.077999
