19
Iteration:    73
 C         0.176800        -0.715611         0.754085
 C         1.551744        -0.306105         0.156407
 C         2.306179        -0.717300        -1.202860
 C         3.394686         0.407619        -0.564863
 C         4.601088        -0.465578        -0.282281
 O         3.947710        -1.095532         0.721310
 C         2.958269        -0.101006         0.807846
 C         2.511056         1.677853        -0.732401
 O         1.322916         1.134475        -0.066716
 H        -0.540217        -0.967311        -0.111318
 H         0.162341        -1.671449         1.305876
 H        -0.162882         0.100647         1.420195
 H         2.691055        -1.745658        -1.303697
 H         1.841658        -0.376297        -2.178888
 H         4.877713        -1.234565        -1.108838
 H         5.463596         0.068459         0.122109
 H         3.204918         0.604941         1.636700
 H         2.898102         2.518807        -0.020743
 H         2.389218         1.921313        -1.889315
