19
Iteration:   676charge 0 multiplicity 1
 C         0.237470        -0.795074         0.630032
 C         1.505019        -0.179473         0.188054
 C         2.086294        -0.362320        -1.276268
 C         3.300593         0.408917        -0.573091
 C         4.560737        -0.438430        -0.551800
 O         3.909402        -1.379789         0.243326
 C         2.891113        -0.422433         0.725145
 C         2.761387         1.745164        -0.199451
 O         1.449071         1.261860         0.382052
 H         0.187538        -1.839229         0.295645
 H         0.108165        -0.764876         1.694234
 H        -0.567052        -0.147993         0.218615
 H         2.409469        -1.369683        -1.283383
 H         1.698482         0.016831        -2.145024
 H         4.880355        -0.827961        -1.535176
 H         5.438446        -0.013954        -0.080562
 H         3.245449         0.029461         1.653520
 H         3.382628         2.230717         0.483940
 H         2.520940         2.292731        -1.045660
