19
Iteration:  1720
 C         0.163119        -0.733389         0.489261
 C         1.532306        -0.124124         0.268692
 C         1.876244         0.230429        -1.101295
 C         3.263794         0.477823        -0.436789
 C         4.425408        -0.295952        -1.013810
 O         3.760377        -1.552232        -0.658883
 C         2.937617        -0.763964         0.423249
 C         3.007000         1.544229         0.587242
 O         1.723546         1.088764         1.016005
 H         0.136222        -1.288406         1.498075
 H        -0.612591         0.049096         0.604581
 H        -0.173302        -1.412957        -0.293476
 H         1.909617        -0.640670        -1.822589
 H         1.413785         1.109293        -1.512204
 H         4.649539        -0.122121        -2.081635
 H         5.313761        -0.165148        -0.344742
 H         3.390242        -1.046741         1.383689
 H         3.842720         1.543721         1.429805
 H         3.077088         2.552159         0.388590
