19
Iteration:  1709charge 0 multiplicity 1
 C         0.170547        -0.754472         0.574688
 C         1.452112        -0.158728         0.270791
 C         1.905579         0.368628        -1.102754
 C         3.308804         0.453536        -0.399860
 C         4.505843        -0.243749        -1.013201
 O         3.745951        -1.566431        -0.603478
 C         2.872087        -0.880445         0.369751
 C         3.026997         1.587675         0.530512
 O         1.724961         1.069395         0.984335
 H         0.236035        -1.630285         1.318790
 H        -0.568247         0.004399         0.867503
 H        -0.088443        -1.154977        -0.396907
 H         1.807806        -0.464234        -1.878873
 H         1.406938         1.262964        -1.423103
 H         4.674385        -0.328414        -2.101489
 H         5.511970        -0.162582        -0.523799
 H         3.219298        -0.951024         1.416394
 H         3.827980         1.647529         1.388844
 H         2.691147         2.442153         0.046582
