19
Iteration:  4184charge 0 multiplicity 1
 C         0.012134        -0.643387         0.507470
 C         1.394586        -0.155601         0.202768
 C         1.953631         0.996153        -0.581815
 C         3.347201         0.533979        -0.254906
 C         4.267278         0.061994        -1.323917
 O         3.446924        -1.098261        -1.575283
 C         2.722156        -0.930798        -0.231802
 C         3.450389         0.753019         1.216285
 O         2.105551         0.409223         1.646140
 H        -0.670495        -0.869961        -0.389768
 H         0.174918        -1.695166         0.866267
 H        -0.484895        -0.215696         1.336252
 H         1.634177         0.889065        -1.670942
 H         1.682235         2.090378        -0.426596
 H         4.320743         0.697988        -2.198507
 H         5.268995        -0.244175        -1.023760
 H         2.997450        -1.876745         0.289636
 H         4.155607         0.158663         1.741979
 H         3.472669         1.884308         1.485766
