19
Iteration:  1552
 C         0.158486        -0.783701         0.568106
 C         1.523233        -0.163229         0.284973
 C         1.938958         0.271130        -1.168353
 C         3.257227         0.489269        -0.445710
 C         4.444003        -0.266905        -0.861516
 O         3.754715        -1.575896        -0.524784
 C         2.926996        -0.849244         0.407411
 C         2.988207         1.575668         0.424942
 O         1.701305         1.155052         0.915328
 H        -0.703267        -0.107461         0.487679
 H         0.064217        -1.547250        -0.255671
 H         0.187274        -1.278305         1.628283
 H         1.822628        -0.555875        -1.782094
 H         1.518185         1.228803        -1.561454
 H         4.672785        -0.334941        -1.976263
 H         5.409688        -0.110917        -0.345341
 H         3.301483        -1.011401         1.380193
 H         3.712400         1.840578         1.348820
 H         3.027791         2.517982        -0.124760
