19
Iteration:  4957charge 0 multiplicity 1
 C         0.141109        -0.673572         0.499424
 C         1.472041        -0.111031         0.179740
 C         1.865020         1.061033        -0.715219
 C         3.296542         0.536183        -0.211382
 C         4.300811         0.013121        -1.389810
 O         3.352117        -1.102321        -1.499222
 C         2.683854        -0.946137        -0.244432
 C         3.417315         0.790236         1.279286
 O         2.132799         0.347423         1.663740
 H        -0.389204        -0.618931        -0.520325
 H         0.157170        -1.721820         0.783836
 H        -0.296232        -0.135085         1.446435
 H         1.740440         0.910442        -1.680967
 H         1.520926         2.020364        -0.467049
 H         4.414277         0.762149        -2.168580
 H         5.277168        -0.261086        -0.969027
 H         2.958245        -1.620996         0.517359
 H         4.255152         0.091383         1.557934
 H         3.636495         1.788554         1.650261
