19
Iteration:  1645
 C         0.208400        -0.879369         0.514453
 C         1.498743        -0.162546         0.216832
 C         1.938629         0.274346        -1.097399
 C         3.284530         0.463662        -0.466139
 C         4.436740        -0.367291        -0.952832
 O         3.652667        -1.568160        -0.662390
 C         2.943778        -0.716296         0.495391
 C         3.060512         1.654293         0.560479
 O         1.684708         1.174929         0.984892
 H         0.302284        -1.888592         0.052477
 H         0.048127        -1.108784         1.558452
 H        -0.611438        -0.385964         0.064980
 H         2.009591        -0.580146        -1.866758
 H         1.401222         1.143790        -1.484108
 H         4.634979        -0.259478        -2.038004
 H         5.446780        -0.211646        -0.434915
 H         3.427376        -0.843675         1.528277
 H         3.615121         1.672021         1.508224
 H         3.023032         2.739161         0.264734
