19
Iteration:  1115
 C         0.096947        -0.792937         0.571444
 C         1.488304        -0.286092         0.205835
 C         2.012714        -0.082763        -1.246818
 C         3.336697         0.514575        -0.497565
 C         4.557638        -0.309396        -0.808413
 O         3.800575        -1.600928        -0.124366
 C         2.998073        -0.587412         0.553525
 C         2.929429         1.735535         0.207428
 O         1.537154         1.262388         0.699626
 H        -0.417668        -0.162296         1.339498
 H        -0.647820        -0.745880        -0.268112
 H         0.108808        -1.791221         0.983812
 H         2.388827        -0.999827        -1.681897
 H         1.384215         0.489415        -2.012804
 H         4.714309        -0.747420        -1.858575
 H         5.513129        -0.179764        -0.166390
 H         3.490213        -0.298860         1.586198
 H         3.476246         2.127492         1.091941
 H         2.703630         2.614057        -0.472200
