19
Iteration:  1683charge 0 multiplicity 1
 C         0.164946        -0.860046         0.613739
 C         1.434001        -0.189016         0.086937
 C         2.025374         0.440355        -1.225747
 C         3.340237         0.567022        -0.408265
 C         4.423382        -0.436144        -0.986386
 O         3.720841        -1.613218        -0.584487
 C         2.877609        -0.712358         0.409436
 C         2.940914         1.716701         0.570967
 O         1.781001         0.986510         1.066145
 H         0.492159        -1.801062         1.070649
 H        -0.078486        -0.129925         1.424020
 H        -0.747470        -1.029423        -0.032712
 H         2.041782        -0.231730        -2.042093
 H         1.518625         1.378559        -1.505676
 H         4.658713        -0.508098        -2.060944
 H         5.326360        -0.384400        -0.437526
 H         3.247655        -0.718591         1.405962
 H         3.774172         1.763403         1.204925
 H         2.417507         2.549217         0.104039
