19
Iteration:   701charge 0 multiplicity 1
 C         0.228029        -0.855677         0.684684
 C         1.517997        -0.249204         0.135251
 C         2.079434        -0.187898        -1.291881
 C         3.390982         0.447642        -0.458686
 C         4.607254        -0.499813        -0.629830
 O         3.864593        -1.511142         0.311051
 C         2.958915        -0.449950         0.700761
 C         2.629897         1.822740        -0.213831
 O         1.448143         1.298837         0.339069
 H         0.465638        -1.689999         1.390043
 H        -0.133685        -0.066248         1.333814
 H        -0.641003        -1.042072        -0.009125
 H         2.472490        -1.161393        -1.749389
 H         1.744093         0.636288        -1.967493
 H         4.884698        -0.889654        -1.632529
 H         5.592088        -0.156818        -0.147470
 H         3.145952        -0.177463         1.745422
 H         3.246330         2.648878         0.315320
 H         2.420923         2.150705        -1.222710
