19
Iteration:  2087charge 0 multiplicity 1
 C         0.007358        -0.851792         0.490377
 C         1.418043        -0.111587         0.353365
 C         1.853668         0.521316        -1.039391
 C         3.352889         0.474732        -0.406527
 C         4.472382        -0.275449        -1.052463
 O         3.688101        -1.480712        -0.910965
 C         2.838931        -0.848925         0.260326
 C         3.224466         1.502007         0.734214
 O         1.844240         0.959575         1.179222
 H        -0.698023        -0.385449        -0.252727
 H         0.250105        -1.854749         0.310133
 H        -0.411933        -0.849578         1.466639
 H         1.745897        -0.036482        -1.975129
 H         1.275534         1.518582        -1.171989
 H         4.714728        -0.070193        -2.115873
 H         5.375952        -0.374481        -0.503922
 H         3.392430        -1.304625         1.150663
 H         3.907645         1.375538         1.711238
 H         3.076022         2.578408         0.571789
