19
Iteration:  4404charge 0 multiplicity 1
 C         0.143409        -0.798448         0.485154
 C         1.465880        -0.054189         0.215523
 C         2.049228         1.145111        -0.591180
 C         3.371776         0.511000        -0.185508
 C         4.168425         0.002068        -1.395870
 O         3.311529        -1.125021        -1.534230
 C         2.702070        -0.927556        -0.213957
 C         3.436799         0.813067         1.296212
 O         2.034559         0.363023         1.566228
 H        -0.375503        -0.896752        -0.470970
 H         0.314376        -1.810258         0.842011
 H        -0.496684        -0.344275         1.154964
 H         1.936956         1.099390        -1.859575
 H         1.804441         2.115515        -0.125974
 H         4.156049         0.632135        -2.327104
 H         5.234369        -0.260126        -1.142203
 H         3.149757        -1.622477         0.350940
 H         4.252779         0.279977         1.711833
 H         3.584347         1.881678         1.584162
