19
Iteration:  4325charge 0 multiplicity 1
 C         0.079683        -0.622358         0.557141
 C         1.512604        -0.138700         0.221508
 C         1.973220         1.045631        -0.645350
 C         3.376690         0.510679        -0.190671
 C         4.205238         0.047452        -1.311908
 O         3.353013        -1.100888        -1.590522
 C         2.759500        -0.947964        -0.224384
 C         3.355623         0.881408         1.248877
 O         2.090552         0.214491         1.578694
 H        -0.480550        -0.728122        -0.392086
 H         0.105625        -1.575872         1.000891
 H        -0.412832         0.068943         1.235481
 H         1.922667         0.956736        -1.849767
 H         1.649705         2.139372        -0.439669
 H         4.241881         0.811311        -2.084497
 H         5.254186        -0.227545        -1.019249
 H         3.114914        -1.759657         0.277247
 H         4.180734         0.387642         1.739075
 H         3.331315         1.962623         1.412012
