19
Iteration:  3562charge 0 multiplicity 1
 C        -0.009202        -0.611516         0.506246
 C         1.520515        -0.166763         0.288779
 C         1.932597         0.914762        -0.628134
 C         3.391974         0.444294        -0.182497
 C         4.282179         0.088802        -1.411158
 O         3.375783        -1.139401        -1.559249
 C         2.829129        -0.947559        -0.175272
 C         3.360758         0.981972         1.291925
 O         2.072340         0.343966         1.540766
 H        -0.158463        -1.111672         1.460949
 H        -0.703272         0.328537         0.168335
 H        -0.322549        -1.477308        -0.124774
 H         1.738809         0.689880        -1.719861
 H         1.503900         1.812114        -0.477111
 H         4.308200         0.717025        -2.368542
 H         5.295282        -0.250454        -1.182755
 H         3.114323        -1.763556         0.509905
 H         4.123549         0.516337         1.894326
 H         3.394598         1.990467         1.411397
