19
Iteration:   797charge 0 multiplicity 1
 C         0.159386        -0.734233         0.605485
 C         1.492047        -0.245719         0.138504
 C         2.089167        -0.218510        -1.277697
 C         3.347118         0.401652        -0.483001
 C         4.576912        -0.464513        -0.669472
 O         3.988228        -1.491753         0.150115
 C         2.929636        -0.480542         0.753495
 C         2.718325         1.781888        -0.144626
 O         1.471675         1.243238         0.521263
 H        -0.567266        -0.438034        -0.208615
 H         0.050416        -1.781008         0.797555
 H        -0.065559        -0.160285         1.561241
 H         2.182961        -1.192613        -1.827328
 H         1.607856         0.456460        -1.909647
 H         4.670050        -0.755567        -1.719795
 H         5.516957        -0.218797        -0.227946
 H         3.132310        -0.212230         1.808689
 H         3.228103         2.526803         0.487706
 H         2.296275         2.457089        -0.998347
