19
Iteration:  3809charge 0 multiplicity 1
 C         0.147286        -0.710149         0.377799
 C         1.517181        -0.173770         0.284474
 C         1.976655         1.071516        -0.592078
 C         3.444843         0.480075        -0.172813
 C         4.223673         0.010839        -1.403162
 O         3.196946        -1.053949        -1.653091
 C         2.712890        -0.959083        -0.211604
 C         3.385404         0.935725         1.308460
 O         2.164649         0.281397         1.692973
 H         0.159519        -1.822586        -0.103674
 H        -0.470894        -0.756679         1.376704
 H        -0.568447         0.074353        -0.116738
 H         1.825379         1.064885        -1.586841
 H         1.660804         1.921576        -0.075763
 H         4.260436         0.721470        -2.217042
 H         5.197858        -0.525761        -1.210293
 H         3.006984        -1.769970         0.458307
 H         4.151041         0.718987         2.002054
 H         3.253827         2.043831         1.296147
