19
Iteration:  1610charge 0 multiplicity 1
 C         0.194138        -0.774087         0.519430
 C         1.483500        -0.187764         0.183625
 C         1.953802         0.323078        -1.179086
 C         3.302265         0.487193        -0.357024
 C         4.445537        -0.377703        -1.019037
 O         3.763324        -1.580105        -0.541286
 C         2.904233        -0.746043         0.487103
 C         2.985658         1.695004         0.470576
 O         1.678679         1.050705         1.036436
 H        -0.415813        -1.089782        -0.347653
 H         0.450470        -1.637009         1.152785
 H        -0.407962        -0.147859         1.166891
 H         1.963502        -0.477341        -1.984908
 H         1.535170         1.242823        -1.532671
 H         4.425803        -0.373686        -2.147938
 H         5.495055        -0.163894        -0.605835
 H         3.229201        -0.937594         1.536849
 H         3.661962         1.700980         1.368240
 H         2.916707         2.499779        -0.224369
