19
Iteration:  1220charge 0 multiplicity 1
 C         0.177340        -0.824185         0.559289
 C         1.540842        -0.244807         0.143023
 C         2.030825         0.089815        -1.262655
 C         3.329659         0.504541        -0.440917
 C         4.440695        -0.448069        -0.862681
 O         3.789704        -1.557806        -0.192795
 C         3.018222        -0.640954         0.617224
 C         2.896952         1.789225         0.218289
 O         1.572739         1.214470         0.790821
 H        -0.039129        -1.756238        -0.013811
 H         0.086709        -0.965670         1.650839
 H        -0.709723        -0.213810         0.295558
 H         2.112193        -0.788465        -1.792177
 H         1.475635         0.903486        -1.820978
 H         4.678387        -0.732405        -1.886668
 H         5.413768        -0.308607        -0.329458
 H         2.994240        -0.772064         1.679930
 H         3.569291         2.127085         1.060920
 H         2.564641         2.482683        -0.498830
