19
Iteration:  1866charge 0 multiplicity 1
 C         0.085694        -0.818821         0.562511
 C         1.445219        -0.139764         0.241557
 C         1.976337         0.512723        -1.097713
 C         3.372963         0.481156        -0.427080
 C         4.456938        -0.267164        -1.083259
 O         3.690971        -1.587631        -0.635108
 C         2.921794        -0.824598         0.342303
 C         3.052345         1.565542         0.557634
 O         1.798212         0.938562         1.121926
 H        -0.385086        -1.190059        -0.295115
 H         0.205742        -1.573789         1.353652
 H        -0.605791        -0.005182         0.820122
 H         1.799498         0.041087        -2.108930
 H         1.509456         1.546074        -1.164996
 H         4.265576        -0.132538        -2.159997
 H         5.518407        -0.253781        -0.731581
 H         2.991104        -1.188063         1.433073
 H         3.702220         1.838045         1.366150
 H         2.601705         2.368917         0.116072
