19
Iteration:  3740
 C         0.041954        -0.688740         0.525523
 C         1.438074        -0.108081         0.312948
 C         1.940787         1.076518        -0.652962
 C         3.387287         0.534216        -0.247064
 C         4.267607         0.078530        -1.367526
 O         3.393790        -1.107386        -1.594083
 C         2.742536        -0.892968        -0.174605
 C         3.527358         0.757246         1.223032
 O         1.993191         0.309046         1.573766
 H        -0.340809        -1.013684        -0.468348
 H         0.048569        -1.667349         1.236601
 H        -0.708780         0.011042         1.060907
 H         1.822864         0.916003        -1.634461
 H         1.568362         2.015093        -0.225165
 H         4.222081         0.703232        -2.284909
 H         5.309789        -0.234107        -1.062232
 H         3.110440        -1.729592         0.417398
 H         4.259115         0.090369         1.832094
 H         3.524628         1.778142         1.569716
