19
Iteration:   878charge 0 multiplicity 1
 C         0.268528        -0.820868         0.709863
 C         1.439180        -0.169408         0.087757
 C         2.083092        -0.093199        -1.401654
 C         3.332318         0.410977        -0.521933
 C         4.567616        -0.491521        -0.691971
 O         3.848965        -1.548557         0.131280
 C         2.922651        -0.464144         0.656271
 C         2.779076         1.789505        -0.081391
 O         1.488003         1.235249         0.621892
 H         0.392792        -1.441317         1.611727
 H        -0.530976        -0.023418         0.947784
 H        -0.195379        -1.444842        -0.067360
 H         2.545417        -0.975428        -1.782539
 H         1.695436         0.689859        -2.203358
 H         4.988887        -0.916287        -1.606113
 H         5.457005        -0.085717        -0.117968
 H         3.034017        -0.260029         1.710754
 H         3.255955         2.309904         0.842263
 H         2.408598         2.411933        -0.895000
