19
Iteration:   880charge 0 multiplicity 1
 C         0.253554        -0.807287         0.710283
 C         1.449400        -0.166187         0.086141
 C         2.095139        -0.102255        -1.382428
 C         3.334592         0.414108        -0.531144
 C         4.575777        -0.497135        -0.704071
 O         3.831992        -1.527075         0.126237
 C         2.927885        -0.478091         0.648652
 C         2.775474         1.786851        -0.070579
 O         1.478148         1.237082         0.626534
 H         0.380493        -1.375999         1.612653
 H        -0.530551        -0.065262         0.884511
 H        -0.093613        -1.530139        -0.023529
 H         2.603499        -0.994996        -1.769722
 H         1.736350         0.630095        -2.150909
 H         5.007506        -0.891793        -1.660108
 H         5.453728        -0.132275        -0.094481
 H         3.013456        -0.232394         1.707878
 H         3.257653         2.253898         0.744493
 H         2.418379         2.368542        -0.803190
