19
Iteration:  1265charge 0 multiplicity 1
 C         0.183008        -0.718756         0.571929
 C         1.489564        -0.184640         0.203979
 C         1.946757         0.039491        -1.290534
 C         3.257501         0.491761        -0.553488
 C         4.532645        -0.429403        -0.793916
 O         3.826377        -1.573323        -0.238299
 C         2.994832        -0.698497         0.506143
 C         2.950508         1.752720         0.270415
 O         1.549192         1.157552         0.852642
 H         0.154383        -1.527429         1.343861
 H        -0.526426         0.100792         0.829198
 H        -0.314438        -1.247077        -0.234854
 H         2.191989        -0.761697        -1.928987
 H         1.377757         0.839338        -1.828379
 H         4.986145        -0.492065        -1.804377
 H         5.317699         0.004917        -0.086927
 H         3.378278        -0.520574         1.505665
 H         3.578698         1.772906         1.243164
 H         2.743536         2.633650        -0.272301
