19
Iteration:  3309charge 0 multiplicity 1
 C         0.191767        -0.690172         0.428532
 C         1.520585        -0.084663         0.263664
 C         1.881024         0.946479        -0.819673
 C         3.332616         0.689089        -0.304044
 C         4.183381        -0.122427        -1.295893
 O         3.359184        -1.314921        -1.370344
 C         2.876052        -0.854857        -0.078084
 C         3.376775         0.976371         1.230241
 O         1.974481         0.446438         1.560220
 H        -0.258997        -0.353876         1.357968
 H        -0.361007        -0.733895        -0.586951
 H         0.429837        -1.701372         0.602924
 H         1.792265         0.445630        -1.809465
 H         1.405113         1.903914        -0.715386
 H         4.302573         0.223498        -2.367576
 H         5.232563        -0.292868        -0.961213
 H         3.352831        -1.404686         0.742392
 H         4.188635         0.463278         1.707227
 H         3.380958         2.204394         1.454079
