19
Iteration:   826charge 0 multiplicity 1
 C         0.158775        -0.787843         0.602004
 C         1.457369        -0.154484         0.151911
 C         2.092400        -0.303846        -1.224973
 C         3.311015         0.427298        -0.555376
 C         4.514760        -0.413286        -0.640953
 O         3.893766        -1.499414         0.103921
 C         2.990493        -0.441491         0.670934
 C         2.812204         1.741909        -0.030751
 O         1.500140         1.282459         0.484153
 H        -0.064230        -1.544486        -0.133642
 H         0.184358        -1.347633         1.541233
 H        -0.631748        -0.068498         0.709614
 H         2.289825        -1.331992        -1.535213
 H         1.585742         0.231446        -2.077468
 H         4.730068        -0.668623        -1.709433
 H         5.410339        -0.179525        -0.037987
 H         3.309741        -0.019280         1.647641
 H         3.432735         2.171540         0.713753
 H         2.561816         2.601475        -0.629791
