19
Iteration:  3306
 C         0.176354        -0.666460         0.430384
 C         1.536725        -0.075823         0.276514
 C         1.889442         0.934777        -0.814509
 C         3.332497         0.698581        -0.329113
 C         4.211863        -0.129463        -1.317213
 O         3.362940        -1.327466        -1.368389
 C         2.862083        -0.844925        -0.071890
 C         3.358801         0.993376         1.229000
 O         1.968668         0.424213         1.551634
 H        -0.267043        -0.368008         1.429857
 H        -0.463517        -0.759059        -0.555968
 H         0.485743        -1.801647         0.563925
 H         1.809307         0.500902        -1.709963
 H         1.420499         1.904930        -0.712006
 H         4.265710         0.270754        -2.315377
 H         5.197751        -0.234723        -0.904835
 H         3.357391        -1.392719         0.762488
 H         4.276174         0.437364         1.712031
 H         3.349096         2.149466         1.516147
