19
Iteration:  3411charge 0 multiplicity 1
 C         0.030773        -0.653435         0.483400
 C         1.458203        -0.105699         0.259888
 C         1.857196         0.932345        -0.700294
 C         3.325978         0.538076        -0.308933
 C         4.292336         0.028942        -1.331541
 O         3.500530        -1.293878        -1.414863
 C         2.776509        -0.935574        -0.150032
 C         3.369338         0.953293         1.138524
 O         2.081543         0.443042         1.602914
 H        -0.531408        -0.588981        -0.400523
 H         0.100316        -1.674407         0.620962
 H        -0.453106        -0.118929         1.273300
 H         1.451491         0.730154        -1.794577
 H         1.509610         1.983084        -0.425298
 H         4.413814         0.626987        -2.261474
 H         5.301061        -0.171518        -0.836504
 H         3.032277        -1.650234         0.641044
 H         4.175073         0.418175         1.617332
 H         3.523844         2.133514         1.420662
