19
Iteration:   376charge 0 multiplicity 1
 C         0.278537        -0.765273         0.682008
 C         1.513132        -0.176450         0.173806
 C         2.121673        -0.602972        -1.190223
 C         3.292918         0.363592        -0.577141
 C         4.558001        -0.365698        -0.425709
 O         3.958534        -1.321729         0.480019
 C         2.967280        -0.258002         0.788393
 C         2.654124         1.690964        -0.409849
 O         1.350700         1.268685         0.052585
 H        -0.083414        -0.254120         1.650522
 H        -0.469755        -0.729561        -0.112214
 H         0.564425        -1.852301         0.790913
 H         2.349267        -1.695424        -1.208881
 H         1.524785        -0.209895        -2.053319
 H         5.053956        -0.820502        -1.302532
 H         5.363719         0.155448         0.187465
 H         3.344655         0.300129         1.679278
 H         3.220045         2.362507         0.386655
 H         2.705281         2.156194        -1.464797
