19
Iteration:   239
 C         0.254231        -0.833127         0.762894
 C         1.470901        -0.307417         0.073708
 C         2.131906        -0.551796        -1.240290
 C         3.280771         0.355904        -0.638379
 C         4.739042        -0.416510        -0.310242
 O         3.975655        -1.278630         0.690622
 C         2.898279        -0.169162         0.721357
 C         2.577694         1.695033        -0.641614
 O         1.396085         1.286510         0.086943
 H        -0.623113        -0.488869         0.249029
 H         0.239300        -1.927710         0.988530
 H         0.331816        -0.330161         1.752542
 H         2.385592        -1.616805        -1.426231
 H         1.657930        -0.083851        -2.097592
 H         5.320597        -1.056727        -1.035157
 H         5.346823         0.262742         0.243866
 H         2.877989         0.289094         1.718294
 H         3.183754         2.584271        -0.262740
 H         2.251434         2.162749        -1.725928
