19
Iteration:  4705charge 0 multiplicity 1
 C         0.195689        -0.735916         0.417301
 C         1.545742        -0.205827         0.307247
 C         2.007537         1.013717        -0.597518
 C         3.403229         0.535765        -0.149431
 C         4.206857        -0.014280        -1.353099
 O         3.180431        -1.028522        -1.632565
 C         2.764454        -0.903821        -0.213549
 C         3.427710         0.853904         1.264850
 O         2.016517         0.390641         1.607797
 H        -0.056182        -1.228145        -0.481605
 H         0.090772        -1.389942         1.183663
 H        -0.430604         0.060293         0.610247
 H         1.771147         0.970975        -1.641888
 H         1.657545         2.068716        -0.216256
 H         4.383999         0.600503        -2.250713
 H         5.224024        -0.580278        -1.131994
 H         3.113790        -1.803462         0.395571
 H         4.140509         0.221392         1.901265
 H         3.487584         1.942345         1.471212
