19
Iteration:  2640charge 0 multiplicity 1
 C         0.091546        -0.749118         0.464759
 C         1.450324        -0.173690         0.264429
 C         1.883817         0.687643        -0.945609
 C         3.316055         0.477621        -0.272741
 C         4.255667        -0.102283        -1.205814
 O         3.628768        -1.476315        -1.118174
 C         2.855305        -0.960485         0.080926
 C         3.245863         1.257113         0.929388
 O         1.947501         0.885721         1.410602
 H        -0.397243        -0.476033         1.464305
 H        -0.492385        -0.422196        -0.353788
 H         0.184170        -1.828865         0.344680
 H         1.897642         0.354655        -1.948186
 H         1.526828         1.704809        -0.897508
 H         4.326066         0.380070        -2.163164
 H         5.236583        -0.116326        -0.681285
 H         3.162697        -1.363637         0.957048
 H         3.987303         0.878851         1.579957
 H         3.323539         2.272393         0.797785
