19
Iteration:  1286charge 0 multiplicity 1
 C         0.136427        -0.782891         0.565076
 C         1.461722        -0.216884         0.176685
 C         1.909724         0.067738        -1.210323
 C         3.380349         0.497954        -0.495923
 C         4.539904        -0.383569        -0.808607
 O         3.771085        -1.524827        -0.284393
 C         2.955613        -0.607602         0.532067
 C         2.889202         1.639101         0.319073
 O         1.681778         1.168849         0.753162
 H         0.040762        -0.867221         1.697675
 H        -0.695287        -0.147648         0.126097
 H        -0.017666        -1.837016         0.192059
 H         1.896367        -0.856479        -1.700985
 H         1.429479         0.872155        -1.831820
 H         4.915821        -0.366446        -1.864041
 H         5.359041        -0.105539        -0.030200
 H         3.317781        -0.690962         1.562183
 H         3.654041         1.739997         1.210973
 H         2.735970         2.575504        -0.233644
