19
Iteration:  4192charge 0 multiplicity 1
 C         0.005189        -0.682315         0.502883
 C         1.403169        -0.155312         0.225170
 C         1.928804         1.021017        -0.595790
 C         3.349386         0.517748        -0.207853
 C         4.257169         0.097128        -1.348913
 O         3.406508        -1.139999        -1.563417
 C         2.727329        -0.934784        -0.283550
 C         3.467468         0.797365         1.250198
 O         2.117492         0.395667         1.591561
 H        -0.369029        -0.739915        -0.458501
 H         0.236515        -1.601988         0.890599
 H        -0.560276        -0.069954         1.155517
 H         1.859648         0.813614        -1.613144
 H         1.633028         2.084747        -0.137039
 H         4.319031         0.723677        -2.187952
 H         5.228822        -0.194951        -0.960261
 H         2.981147        -1.851517         0.576583
 H         4.148770         0.157905         1.819193
 H         3.631330         1.832688         1.507282
