19
Iteration:  3184
 C         0.140703        -0.769856         0.382451
 C         1.455743        -0.079028         0.301686
 C         1.909834         1.024812        -0.718940
 C         3.357693         0.497531        -0.301751
 C         4.292808        -0.093995        -1.344008
 O         3.402817        -1.357072        -1.340752
 C         2.806566        -0.909634         0.002197
 C         3.372912         1.100533         1.101646
 O         2.000140         0.522580         1.491590
 H         0.427593        -1.643043         1.107286
 H        -0.692562        -0.198510         0.874660
 H        -0.217571        -1.142673        -0.702962
 H         1.613712         0.716420        -1.628877
 H         1.711506         2.044929        -0.524960
 H         4.215254         0.220249        -2.345023
 H         5.266346        -0.278650        -0.930090
 H         3.103879        -1.531667         0.882112
 H         4.072999         0.799902         1.985852
 H         3.172841         2.293484         1.343123
