19
Iteration:   754
 C         0.231706        -0.842818         0.634157
 C         1.468428        -0.152396         0.138987
 C         1.991575        -0.368192        -1.277839
 C         3.279125         0.418444        -0.589075
 C         4.596263        -0.452914        -0.535340
 O         3.906991        -1.449455         0.189953
 C         2.903171        -0.373886         0.607689
 C         2.800361         1.748506        -0.122562
 O         1.500493         1.338767         0.472817
 H        -0.416568        -0.240688         1.321959
 H        -0.454551        -1.082454        -0.136052
 H         0.589804        -1.797589         1.143619
 H         2.373918        -1.363699        -1.634789
 H         1.464428         0.087724        -2.059282
 H         4.861932        -0.878915        -1.503671
 H         5.410997         0.061104        -0.011979
 H         3.125926        -0.173038         1.657463
 H         3.555066         2.033394         0.625679
 H         2.873239         2.602243        -0.708366
