19
Iteration:  4429charge 0 multiplicity 1
 C         0.167147        -0.674549         0.519397
 C         1.504150        -0.098326         0.278384
 C         1.905928         1.078897        -0.563348
 C         3.399290         0.521909        -0.212934
 C         4.320663         0.009254        -1.361137
 O         3.290967        -1.120965        -1.619602
 C         2.747961        -0.918261        -0.232986
 C         3.375879         0.815720         1.266740
 O         2.016931         0.318872         1.569669
 H        -0.138572        -1.147068        -0.367048
 H         0.065882        -1.407762         1.332998
 H        -0.608992         0.112365         0.697922
 H         1.586841         0.958482        -1.748611
 H         1.621401         2.039116        -0.077014
 H         4.371681         0.652305        -2.255250
 H         5.283195        -0.410763        -1.129753
 H         3.186015        -1.743326         0.326073
 H         4.268557         0.283264         1.680835
 H         3.536888         1.855190         1.560579
