19
Iteration:  3841charge 0 multiplicity 1
 C         0.069958        -0.613984         0.495463
 C         1.514365        -0.142496         0.287245
 C         1.919925         0.965644        -0.609707
 C         3.406714         0.642211        -0.240013
 C         4.193751         0.074475        -1.397962
 O         3.306406        -1.059168        -1.532163
 C         2.802741        -0.837628        -0.199000
 C         3.449049         0.709723         1.278363
 O         2.097705         0.251964         1.550864
 H        -0.218668        -1.636732        -0.027942
 H        -0.260034        -0.700388         1.612996
 H        -0.594438        -0.015376        -0.248239
 H         1.852844         0.710515        -1.562085
 H         1.379737         1.868482        -0.436353
 H         4.258387         0.515932        -2.383173
 H         5.218646        -0.432475        -1.263502
 H         3.151256        -1.536901         0.540568
 H         4.169938         0.056200         1.861918
 H         3.456783         1.689388         1.787117
