19
Iteration:  2890charge 0 multiplicity 1
 C         0.074776        -0.813176         0.446242
 C         1.500504        -0.188783         0.282731
 C         1.878407         0.851825        -0.858510
 C         3.348929         0.503926        -0.274996
 C         4.265853        -0.153237        -1.235308
 O         3.439171        -1.350707        -1.281335
 C         2.895136        -0.856914         0.093159
 C         3.328773         1.243890         0.987326
 O         1.972331         0.660154         1.443403
 H        -0.087063        -1.485315         1.328295
 H        -0.720161        -0.142565         0.398736
 H         0.046648        -1.362201        -0.493858
 H         1.836248         0.687455        -1.858232
 H         1.569111         1.923865        -0.669624
 H         4.531483         0.223669        -2.213907
 H         5.179835        -0.387887        -0.613363
 H         3.304114        -1.496451         0.967891
 H         4.052710         0.855915         1.782483
 H         3.348329         2.357819         1.047494
