19
Iteration:  3624charge 0 multiplicity 1
 C         0.128687        -0.809359         0.484945
 C         1.499451        -0.106462         0.243595
 C         2.027873         1.109689        -0.732570
 C         3.392880         0.578784        -0.222529
 C         4.244996        -0.051113        -1.390178
 O         3.247742        -1.092299        -1.502082
 C         2.785787        -0.820304        -0.128822
 C         3.415272         0.852242         1.265786
 O         1.996366         0.291321         1.559443
 H        -0.415046        -0.126851         1.156964
 H        -0.448897        -0.973716        -0.306772
 H         0.359953        -1.739229         0.928232
 H         1.810391         0.868381        -1.841926
 H         1.735691         2.167595        -0.354341
 H         4.275495         0.590908        -2.272448
 H         5.235961        -0.423651        -1.058093
 H         3.138517        -1.522408         0.662732
 H         4.196668         0.160107         1.770100
 H         3.415792         1.948561         1.705205
