19
Iteration:  1328charge 0 multiplicity 1
 C         0.188451        -0.860542         0.579185
 C         1.486977        -0.105642         0.129309
 C         2.040278         0.198109        -1.226458
 C         3.368480         0.460458        -0.387528
 C         4.519327        -0.479328        -0.935254
 O         3.746319        -1.565760        -0.286300
 C         2.969615        -0.691509         0.523301
 C         2.817470         1.749053         0.347665
 O         1.622804         1.168506         0.819370
 H        -0.484977        -0.039937         0.953304
 H        -0.351397        -1.475975        -0.182354
 H         0.565971        -1.519905         1.398939
 H         2.185426        -0.590485        -1.882405
 H         1.567229         1.112248        -1.743744
 H         4.565699        -0.705186        -1.985785
 H         5.472412        -0.494594        -0.349687
 H         3.120952        -0.754629         1.635525
 H         3.271172         2.170476         1.231331
 H         2.651070         2.593236        -0.397567
