19
Iteration:   358
 C         0.189918        -0.751987         0.702724
 C         1.504369        -0.241173         0.157638
 C         2.160881        -0.469362        -1.227113
 C         3.344964         0.320483        -0.621351
 C         4.719224        -0.424905        -0.400768
 O         3.977714        -1.306555         0.564083
 C         2.944565        -0.255944         0.746387
 C         2.571960         1.737226        -0.563283
 O         1.343253         1.207138         0.175114
 H         0.266356        -0.606281         1.762073
 H        -0.629841        -0.073309         0.322545
 H        -0.093808        -1.780853         0.458004
 H         2.453606        -1.529689        -1.346384
 H         1.656715        -0.040811        -2.096063
 H         5.149107        -1.047448        -1.254462
 H         5.546329         0.164946        -0.004329
 H         3.064129         0.206288         1.775033
 H         3.095079         2.423490         0.145110
 H         2.280681         2.096460        -1.543888
