19
Iteration:  3381
 C         0.126374        -0.631248         0.506082
 C         1.536681        -0.141221         0.198414
 C         1.938672         0.864772        -0.783722
 C         3.413196         0.595078        -0.279468
 C         4.253194        -0.081271        -1.338567
 O         3.298834        -1.155977        -1.408458
 C         2.878110        -0.902395        -0.078692
 C         3.295118         1.063276         1.193858
 O         2.004787         0.336251         1.544660
 H        -0.705541        -0.151259        -0.017348
 H         0.148086        -1.664222         0.273612
 H        -0.080115        -0.498947         1.622786
 H         1.804836         0.468379        -1.788409
 H         1.498331         1.904968        -0.562483
 H         4.577141         0.439739        -2.234246
 H         5.201883        -0.425913        -0.834393
 H         3.189451        -1.630799         0.701569
 H         4.133156         0.611110         1.828598
 H         3.231343         2.033203         1.367783
