19
Iteration:  4475charge 0 multiplicity 1
 C         0.096859        -0.524172         0.452318
 C         1.533125        -0.195746         0.342888
 C         1.960796         0.956501        -0.627084
 C         3.368126         0.468536        -0.208300
 C         4.249511         0.094376        -1.377574
 O         3.263468        -1.046274        -1.602711
 C         2.789906        -0.959386        -0.246188
 C         3.362712         0.904992         1.272859
 O         2.137229         0.181962         1.633583
 H        -0.155737        -1.385813        -0.214819
 H        -0.207506        -0.845538         1.440928
 H        -0.612044         0.352953         0.197869
 H         1.746607         0.729573        -1.817683
 H         1.670524         2.027580        -0.352041
 H         4.236752         0.757006        -2.225564
 H         5.211861        -0.311640        -1.216602
 H         3.128195        -1.801963         0.479723
 H         4.137776         0.556502         2.017424
 H         3.258215         1.976165         1.444054
