19
Iteration:   154
 C         0.233609        -0.760368         0.693802
 C         1.563844        -0.250752         0.138144
 C         2.193194        -0.631520        -1.272407
 C         3.267324         0.291141        -0.624304
 C         4.592050        -0.440792        -0.308736
 O         4.019432        -1.185161         0.737982
 C         2.927707        -0.071528         0.843067
 C         2.551149         1.640365        -0.656223
 O         1.383588         1.196923         0.019176
 H         0.341918        -1.138559         1.691264
 H        -0.420366         0.154730         0.733628
 H        -0.249797        -1.596187         0.122179
 H         2.434884        -1.684994        -1.465507
 H         1.722538        -0.175856        -2.106659
 H         5.031880        -1.102810        -1.056135
 H         5.429048         0.244069         0.021988
 H         3.194995         0.641050         1.562092
 H         3.037537         2.406300        -0.194623
 H         2.238290         1.942228        -1.603378
