19
Iteration:   885charge 0 multiplicity 1
 C         0.216564        -0.786865         0.689119
 C         1.492332        -0.160548         0.101815
 C         2.138433        -0.129497        -1.312871
 C         3.333720         0.439710        -0.550827
 C         4.597054        -0.507743        -0.715170
 O         3.796667        -1.475533         0.109028
 C         2.929525        -0.511948         0.613910
 C         2.757216         1.744819        -0.031311
 O         1.468251         1.236917         0.617726
 H         0.443750        -1.205952         1.711153
 H        -0.644711        -0.096644         0.713630
 H         0.071361        -1.738270         0.083824
 H         2.511383        -1.079095        -1.743857
 H         1.753446         0.508835        -2.097978
 H         4.921864        -0.801978        -1.726798
 H         5.419031        -0.251401        -0.069084
 H         3.027382        -0.198677         1.691103
 H         3.454574         2.292470         0.701840
 H         2.374840         2.524585        -0.853839
