19
Iteration:   392charge 0 multiplicity 1
 C         0.233712        -0.916190         0.736763
 C         1.497557        -0.235057         0.201138
 C         2.124072        -0.532886        -1.107379
 C         3.281701         0.352524        -0.600217
 C         4.632998        -0.353567        -0.490239
 O         3.920951        -1.347252         0.474425
 C         2.872657        -0.283958         0.825416
 C         2.758305         1.803829        -0.475920
 O         1.424320         1.331113        -0.013081
 H        -0.336315        -0.217832         1.261713
 H        -0.455606        -1.257202        -0.085201
 H         0.458753        -1.706090         1.408025
 H         2.533487        -1.512677        -1.187747
 H         1.641986        -0.248962        -2.015098
 H         5.013902        -0.926807        -1.362457
 H         5.324786         0.320500        -0.019844
 H         2.892847         0.100739         1.852846
 H         3.276662         2.300550         0.332953
 H         2.467681         2.587716        -1.076245
