19
Iteration:  3062charge 0 multiplicity 1
 C         0.124337        -0.774669         0.439876
 C         1.508035        -0.164566         0.220088
 C         1.936084         0.788936        -0.849959
 C         3.379977         0.563395        -0.231890
 C         4.279512        -0.067195        -1.311939
 O         3.324408        -1.325737        -1.278920
 C         2.849836        -0.853863        -0.017342
 C         3.323441         1.140616         1.164120
 O         2.019274         0.605898         1.492519
 H        -0.541904        -0.624103        -0.520226
 H         0.088222        -1.867875         0.673389
 H        -0.441333        -0.035559         1.156638
 H         1.908570         0.280585        -1.719894
 H         1.509515         1.725439        -0.902175
 H         4.265864         0.344900        -2.324854
 H         5.322558        -0.283434        -0.992668
 H         3.302744        -1.422950         0.816651
 H         4.186772         0.702737         1.738474
 H         3.239773         2.281737         1.262575
