19
Iteration:  3269charge 0 multiplicity 1
 C         0.053026        -0.641632         0.517473
 C         1.505316        -0.187289         0.198020
 C         1.942954         0.885896        -0.735424
 C         3.356387         0.459468        -0.206191
 C         4.235164        -0.021285        -1.258241
 O         3.448113        -1.257288        -1.460522
 C         2.808982        -1.015862        -0.084924
 C         3.340481         1.154165         1.109058
 O         2.032639         0.489473         1.521157
 H        -0.270770        -0.434298         1.540931
 H        -0.696933        -0.268648        -0.061464
 H         0.107245        -1.768363         0.496460
 H         1.830500         0.761569        -1.953423
 H         1.513917         1.868181        -0.432621
 H         4.360291         0.650065        -2.160500
 H         5.303870        -0.266353        -0.979409
 H         3.162449        -1.756053         0.642081
 H         4.088142         0.929977         1.889731
 H         3.159901         2.137327         1.123013
