19
Iteration:   391charge 0 multiplicity 1
 C         0.242279        -0.907063         0.726908
 C         1.504985        -0.225387         0.201218
 C         2.123927        -0.535873        -1.106175
 C         3.270563         0.338406        -0.597844
 C         4.631638        -0.349682        -0.482095
 O         3.921687        -1.351961         0.471782
 C         2.876042        -0.279091         0.822661
 C         2.751605         1.802258        -0.477342
 O         1.424782         1.325281        -0.012400
 H        -0.325249        -0.225900         1.311613
 H        -0.479340        -1.219392        -0.098255
 H         0.451221        -1.726244         1.398194
 H         2.536620        -1.533480        -1.190550
 H         1.633384        -0.265869        -2.024679
 H         5.010929        -0.933643        -1.382138
 H         5.324405         0.361080        -0.030453
 H         2.907720         0.114808         1.876915
 H         3.274003         2.320848         0.403601
 H         2.465040         2.609323        -1.097569
