19
Iteration:  2545
 C         0.042173        -0.807404         0.496120
 C         1.475124        -0.196425         0.286858
 C         1.900491         0.648683        -0.976075
 C         3.325392         0.600772        -0.401223
 C         4.348245        -0.207789        -1.211035
 O         3.525716        -1.425631        -1.094899
 C         2.931731        -0.812211         0.142824
 C         3.303407         1.265949         0.993477
 O         1.876280         0.867370         1.335153
 H         0.167302        -1.796034         0.899503
 H        -0.579369        -0.246482         1.240215
 H        -0.527976        -0.760879        -0.431132
 H         1.893785         0.064632        -1.984598
 H         1.323052         1.677823        -1.070067
 H         4.782061         0.049724        -2.195063
 H         5.110877        -0.517855        -0.520039
 H         3.343889        -1.400962         1.089717
 H         3.953223         0.708116         1.702552
 H         3.337954         2.439729         1.010953
