19
Iteration:  1554
 C         0.155224        -0.786455         0.572386
 C         1.502518        -0.160025         0.268207
 C         1.936305         0.268963        -1.157543
 C         3.268613         0.495632        -0.472869
 C         4.458723        -0.275584        -0.872829
 O         3.752255        -1.573183        -0.522212
 C         2.922533        -0.839907         0.418438
 C         2.987552         1.582497         0.447004
 O         1.710957         1.138993         0.917170
 H        -0.669105        -0.104986         0.427356
 H         0.046941        -1.603830        -0.180422
 H         0.138998        -1.221447         1.615387
 H         1.760310        -0.545025        -1.788217
 H         1.535881         1.211077        -1.581912
 H         4.689423        -0.284812        -1.987101
 H         5.412855        -0.073618        -0.295797
 H         3.308001        -0.990719         1.417591
 H         3.703128         1.864589         1.277242
 H         3.039816         2.457269        -0.090692
