19
Iteration:  4109
 C         0.138306        -0.704152         0.298602
 C         1.471154        -0.067654         0.381196
 C         1.991880         1.005671        -0.508958
 C         3.419300         0.497433        -0.176170
 C         4.170129         0.024609        -1.351945
 O         3.250556        -1.087662        -1.598163
 C         2.787584        -0.960263        -0.212900
 C         3.411463         0.901220         1.222245
 O         2.124951         0.327579         1.613699
 H        -0.228409        -1.060754        -0.779236
 H         0.093081        -1.632549         1.020719
 H        -0.672630        -0.041666         0.761396
 H         1.625598         0.787456        -1.526246
 H         1.644805         1.946959        -0.404580
 H         4.234343         0.725548        -2.276089
 H         5.207846        -0.381885        -1.135814
 H         3.043115        -1.752624         0.387904
 H         4.094299         0.389060         1.917683
 H         3.429465         1.995622         1.516791
