19
Iteration:  3711charge 0 multiplicity 1
 C         0.121956        -0.538249         0.479942
 C         1.518826        -0.132570         0.232084
 C         1.916004         1.027356        -0.596900
 C         3.363392         0.536949        -0.220775
 C         4.225412         0.055000        -1.368137
 O         3.352372        -1.156497        -1.597450
 C         2.796057        -0.984371        -0.198840
 C         3.371607         0.954931         1.294245
 O         2.100690         0.177734         1.588464
 H        -0.573369        -0.294783        -0.398537
 H         0.099320        -1.649739         0.504283
 H        -0.231876        -0.200813         1.495637
 H         1.665914         0.864150        -1.698926
 H         1.435762         1.944934        -0.162975
 H         4.299914         0.588306        -2.287750
 H         5.214499        -0.261344        -1.032795
 H         3.075962        -1.861254         0.422376
 H         4.116338         0.673688         1.932679
 H         3.050341         1.995659         1.460644
