19
Iteration:  3843
 C         0.051655        -0.620427         0.517948
 C         1.513515        -0.148265         0.274782
 C         1.902352         0.975948        -0.623985
 C         3.405435         0.639626        -0.234632
 C         4.215930         0.072203        -1.410740
 O         3.320450        -1.072103        -1.540295
 C         2.801285        -0.826635        -0.196621
 C         3.461388         0.702182         1.300206
 O         2.096575         0.261707         1.558177
 H        -0.251373        -1.661263        -0.042420
 H        -0.263478        -0.685018         1.595669
 H        -0.569351         0.007160        -0.232269
 H         1.807570         0.798323        -1.616541
 H         1.397825         1.836472        -0.435789
 H         4.259812         0.546470        -2.393140
 H         5.195061        -0.406001        -1.285804
 H         3.139276        -1.575039         0.543319
 H         4.110533         0.066524         1.788942
 H         3.442462         1.681145         1.822546
