19
Iteration:  1747charge 0 multiplicity 1
 C         0.091698        -0.763083         0.535037
 C         1.547926        -0.209137         0.207916
 C         1.955420         0.264041        -1.173036
 C         3.309007         0.551615        -0.449790
 C         4.483543        -0.327908        -1.093262
 O         3.654586        -1.532434        -0.573182
 C         2.925508        -0.714648         0.345584
 C         3.014397         1.604016         0.669420
 O         1.751386         0.998638         1.096531
 H        -0.186472        -0.514189         1.524426
 H        -0.613239        -0.279512        -0.148383
 H        -0.113429        -1.866966         0.510057
 H         2.214869        -0.517729        -1.859361
 H         1.409983         1.141008        -1.686529
 H         4.521868        -0.248992        -2.202675
 H         5.444866        -0.323352        -0.511712
 H         3.379586        -0.905316         1.386238
 H         3.861976         1.639550         1.358507
 H         2.810530         2.737840         0.322472
