19
Iteration:  1776charge 0 multiplicity 1
 C         0.203075        -0.786725         0.572875
 C         1.547834        -0.113764         0.173743
 C         1.921811         0.534411        -1.176670
 C         3.271151         0.426501        -0.377526
 C         4.426171        -0.353983        -1.034264
 O         3.759837        -1.639100        -0.582465
 C         2.893911        -0.875642         0.321586
 C         2.971758         1.661970         0.540069
 O         1.705715         1.001934         1.123818
 H        -0.390097        -0.245733         1.348527
 H        -0.395962        -1.044509        -0.303216
 H         0.393141        -1.710935         1.133995
 H         2.089530         0.035250        -2.085033
 H         1.518999         1.599534        -1.283846
 H         4.495831        -0.133681        -2.107154
 H         5.440056        -0.257010        -0.552700
 H         3.284605        -1.088685         1.344484
 H         3.777701         1.930889         1.273692
 H         2.664729         2.370949        -0.098682
