19
Iteration:  1565charge 0 multiplicity 1
 C         0.145342        -0.786904         0.572899
 C         1.450746        -0.163674         0.173287
 C         1.882467         0.247334        -1.180061
 C         3.323792         0.459274        -0.475665
 C         4.508667        -0.354029        -0.950900
 O         3.767642        -1.554126        -0.524446
 C         2.916305        -0.710580         0.450678
 C         3.004948         1.652111         0.471384
 O         1.722193         1.076175         0.992300
 H        -0.630489        -0.110550         0.228314
 H        -0.017752        -1.800071         0.148130
 H         0.006572        -0.877161         1.694923
 H         1.997698        -0.504986        -1.922521
 H         1.352914         1.141319        -1.562265
 H         4.913672        -0.290792        -2.010186
 H         5.311645        -0.194558        -0.168621
 H         3.195642        -0.835695         1.490111
 H         3.765652         1.624553         1.331719
 H         2.638554         2.555043         0.108936
