19
Iteration:  3318
 C         0.228846        -0.787491         0.427005
 C         1.524470        -0.118994         0.225874
 C         1.863563         0.951430        -0.820184
 C         3.344612         0.582023        -0.227395
 C         4.186637        -0.076434        -1.310650
 O         3.334213        -1.255407        -1.355151
 C         2.855409        -0.871925        -0.070159
 C         3.375097         0.976663         1.178636
 O         2.024516         0.530822         1.562544
 H        -0.493052        -0.132182         1.026161
 H        -0.300665        -0.572226        -0.630305
 H         0.214767        -1.863243         0.803578
 H         1.740264         0.607573        -1.751484
 H         1.453662         1.942601        -0.781653
 H         4.316892         0.339414        -2.305760
 H         5.114866        -0.484907        -0.961571
 H         3.244477        -1.524429         0.739613
 H         4.088510         0.415821         1.878783
 H         3.491380         2.178873         1.386169
