19
Iteration:   475charge 0 multiplicity 1
 C         0.078267        -0.876095         0.673417
 C         1.434952        -0.175117         0.210110
 C         2.133384        -0.475604        -1.113727
 C         3.350961         0.369547        -0.581112
 C         4.599110        -0.292152        -0.534120
 O         3.971101        -1.337649         0.403052
 C         2.964722        -0.383211         0.811869
 C         2.802104         1.691413        -0.436705
 O         1.419537         1.320277         0.146890
 H        -0.253471        -1.679530        -0.077927
 H         0.265003        -1.238476         1.748714
 H        -0.753852        -0.081575         0.686793
 H         2.414502        -1.576858        -1.249733
 H         1.590066        -0.066298        -2.033862
 H         4.988722        -0.890578        -1.407512
 H         5.448595         0.300070        -0.076314
 H         3.053013         0.027237         1.871811
 H         3.310613         2.256420         0.392681
 H         2.481736         2.122100        -1.439115
