19
Iteration:  1305
 C         0.181763        -0.801815         0.606168
 C         1.499793        -0.176134         0.180181
 C         2.060732         0.135991        -1.275046
 C         3.268654         0.452102        -0.412805
 C         4.488151        -0.363817        -0.833227
 O         3.817137        -1.614012        -0.316783
 C         2.884506        -0.701878         0.521951
 C         2.969122         1.764487         0.283269
 O         1.553275         1.170972         0.833956
 H        -0.173873        -0.241714         1.499305
 H        -0.566286        -0.697184        -0.206676
 H         0.454970        -1.895761         0.733644
 H         2.231925        -0.689501        -1.915917
 H         1.486138         0.981485        -1.807297
 H         4.507942        -0.642621        -1.858584
 H         5.436365        -0.223412        -0.259509
 H         3.219692        -0.783854         1.600369
 H         3.644014         2.067612         1.041800
 H         2.753537         2.690141        -0.377140
