19
Iteration:   593charge 0 multiplicity 1
 C         0.223258        -0.856724         0.707245
 C         1.569120        -0.277091         0.141411
 C         2.153875        -0.374687        -1.198348
 C         3.364536         0.478581        -0.529978
 C         4.568947        -0.476904        -0.566504
 O         3.816429        -1.362557         0.347187
 C         2.958203        -0.353502         0.716761
 C         2.697362         1.754997        -0.334021
 O         1.413544         1.296061         0.292386
 H        -0.418051         0.012483         1.030773
 H        -0.192833        -1.313100        -0.180177
 H         0.299691        -1.639791         1.493723
 H         2.447539        -1.442058        -1.594692
 H         1.523967        -0.098178        -2.139419
 H         4.917373        -0.954958        -1.480552
 H         5.378412        -0.056985         0.079499
 H         3.227691         0.088855         1.696428
 H         3.148520         2.473372         0.464319
 H         2.715731         2.454972        -1.266960
