19
Iteration:   887
 C         0.210438        -0.790055         0.676843
 C         1.504875        -0.161628         0.113596
 C         2.154596        -0.142475        -1.287935
 C         3.333139         0.451333        -0.554245
 C         4.597623        -0.507852        -0.712887
 O         3.789988        -1.465280         0.100679
 C         2.926135        -0.515686         0.604324
 C         2.748555         1.737352        -0.022577
 O         1.472371         1.235460         0.608412
 H         0.466389        -1.118966         1.732867
 H        -0.708655        -0.096381         0.650336
 H         0.091663        -1.758935         0.138699
 H         2.410555        -1.103245        -1.717423
 H         1.713285         0.513943        -2.136002
 H         4.864478        -0.781222        -1.726744
 H         5.445139        -0.268488        -0.058811
 H         3.055684        -0.216401         1.658244
 H         3.508637         2.311234         0.709607
 H         2.401035         2.534533        -0.827961
