19
Iteration:  2600charge 0 multiplicity 1
 C         0.138466        -0.762935         0.518618
 C         1.545027        -0.170947         0.224853
 C         1.992074         0.698959        -1.026912
 C         3.396491         0.572666        -0.300946
 C         4.373532        -0.305547        -1.249979
 O         3.416783        -1.405673        -1.115769
 C         2.894610        -0.772613         0.104624
 C         3.103980         1.364846         1.047833
 O         1.883407         0.700537         1.413715
 H         0.070888        -0.922110         1.552589
 H        -0.696743        -0.089614         0.266386
 H        -0.037937        -1.704396         0.000335
 H         1.987643         0.082906        -2.045929
 H         1.490798         1.734207        -1.231813
 H         4.471043         0.080391        -2.298792
 H         5.357695        -0.767449        -1.001450
 H         3.491928        -1.230105         1.004872
 H         3.892191         1.261066         1.853325
 H         2.991754         2.521198         0.879939
