19
Iteration:  2339
 C         0.134748        -0.673232         0.544451
 C         1.467222        -0.131754         0.283664
 C         1.891434         0.702362        -0.944223
 C         3.353095         0.442662        -0.347750
 C         4.376244        -0.223889        -1.220517
 O         3.657242        -1.490898        -1.026243
 C         2.867854        -0.935377         0.151430
 C         3.126172         1.337261         0.883257
 O         1.810006         0.853122         1.292314
 H        -0.749674        -0.073320         0.092313
 H         0.171411        -1.713579         0.013997
 H         0.057901        -0.859997         1.658501
 H         1.823609         0.174665        -1.891477
 H         1.446830         1.665963        -1.094614
 H         4.467013         0.061313        -2.324419
 H         5.386796        -0.190896        -0.665221
 H         3.295581        -1.424751         0.970350
 H         3.960749         1.097279         1.700880
 H         3.217123         2.428018         0.641159
