19
Iteration:  1878
 C         0.134126        -0.747465         0.515376
 C         1.506002        -0.185373         0.176940
 C         1.922629         0.486353        -1.134688
 C         3.267873         0.516652        -0.404750
 C         4.347688        -0.307405        -1.094765
 O         3.727080        -1.564745        -0.640380
 C         2.897864        -0.832056         0.332938
 C         3.015127         1.570478         0.628723
 O         1.838321         0.947240         1.167021
 H        -0.147090        -1.488801        -0.182059
 H         0.196254        -1.247705         1.479978
 H        -0.591717         0.035337         0.689846
 H         1.979952        -0.305525        -1.977609
 H         1.539411         1.472708        -1.421429
 H         4.631578        -0.294184        -2.173309
 H         5.321522        -0.225544        -0.510729
 H         3.365670        -1.050003         1.344999
 H         3.767746         1.558991         1.352951
 H         2.950980         2.588425         0.301410
