19
Iteration:  2255charge 0 multiplicity 1
 C         0.056253        -0.828828         0.463960
 C         1.457162        -0.220807         0.250273
 C         1.924101         0.673769        -0.957024
 C         3.342205         0.490955        -0.313285
 C         4.350143        -0.209471        -1.104905
 O         3.572926        -1.514595        -1.013976
 C         2.859790        -0.925645         0.196651
 C         3.233446         1.466093         0.850623
 O         1.920586         0.938329         1.266188
 H        -0.354019        -0.779685         1.391871
 H        -0.647849        -0.512471        -0.321035
 H         0.187603        -1.883798         0.315707
 H         1.728795         0.172918        -2.021822
 H         1.665082         1.750886        -0.883513
 H         4.427567         0.129899        -2.143814
 H         5.269656        -0.141810        -0.589797
 H         3.376447        -1.527264         1.045943
 H         3.955782         1.340430         1.587539
 H         2.975935         2.496783         0.511609
