19
Iteration:  4641
 C         0.052818        -0.618774         0.463470
 C         1.531661        -0.129282         0.249969
 C         1.865363         1.069412        -0.597326
 C         3.365803         0.520152        -0.214726
 C         4.197327         0.035787        -1.381495
 O         3.383361        -1.164684        -1.604328
 C         2.766120        -0.896661        -0.202668
 C         3.395518         0.817478         1.310968
 O         2.123387         0.281256         1.582995
 H        -0.237807        -1.300417        -0.350115
 H         0.066677        -1.144728         1.385234
 H        -0.604520         0.186622         0.464907
 H         1.637566         1.022484        -1.635602
 H         1.670046         1.968737         0.107059
 H         4.253409         0.641708        -2.266558
 H         5.271379        -0.155582        -1.090291
 H         3.124781        -1.532681         0.451400
 H         4.240318         0.221061         1.703091
 H         3.530878         1.819376         1.583167
