19
Iteration:  2110
 C         0.151133        -0.861853         0.520071
 C         1.444534        -0.185136         0.142517
 C         1.941538         0.616863        -1.035298
 C         3.341390         0.459723        -0.319119
 C         4.367138        -0.249255        -1.124464
 O         3.660449        -1.544509        -0.860829
 C         2.886569        -0.869999         0.223633
 C         3.129938         1.434364         0.804831
 O         1.793353         1.053529         1.229963
 H        -0.536488        -0.852813        -0.337328
 H         0.299139        -1.814056         0.939267
 H        -0.287523        -0.280808         1.295339
 H         2.030364         0.086187        -1.953689
 H         1.497472         1.658944        -1.318907
 H         4.283937        -0.061331        -2.227829
 H         5.379057        -0.335291        -0.834670
 H         3.127738        -1.299681         1.280297
 H         3.905878         1.283350         1.659928
 H         3.049369         2.515410         0.609213
