19
Iteration:  2340charge 0 multiplicity 1
 C         0.131971        -0.674347         0.541162
 C         1.470395        -0.124833         0.285860
 C         1.881252         0.698180        -0.940128
 C         3.343041         0.448168        -0.355203
 C         4.374720        -0.219992        -1.208555
 O         3.655564        -1.493932        -1.033088
 C         2.878225        -0.936141         0.153949
 C         3.131608         1.332460         0.891690
 O         1.815004         0.856307         1.289564
 H        -0.704959        -0.084424         0.076671
 H         0.171102        -1.717962         0.011390
 H         0.026856        -0.832607         1.653220
 H         1.828525         0.122150        -1.909687
 H         1.459423         1.666470        -1.127603
 H         4.456716         0.070184        -2.320860
 H         5.376086        -0.184018        -0.659522
 H         3.298141        -1.414302         0.979781
 H         3.971915         1.072237         1.710394
 H         3.207035         2.399496         0.619990
