19
Iteration:   864charge 0 multiplicity 1
 C         0.216563        -0.859173         0.665531
 C         1.514832        -0.180148         0.115870
 C         2.028043        -0.051229        -1.337657
 C         3.306910         0.449191        -0.535436
 C         4.537256        -0.476867        -0.573020
 O         3.918253        -1.555699         0.158805
 C         2.880829        -0.520481         0.611075
 C         2.761715         1.779161        -0.072121
 O         1.562502         1.243891         0.508276
 H         0.622136        -1.748120         1.232643
 H        -0.191343        -0.119304         1.420068
 H        -0.557249        -1.227272        -0.071420
 H         1.884177        -1.000407        -1.854794
 H         1.483946         0.699664        -1.965101
 H         4.693078        -0.730882        -1.616061
 H         5.428728        -0.094141        -0.070418
 H         3.130793        -0.241052         1.655921
 H         3.448908         2.400551         0.658376
 H         2.569671         2.550714        -0.980228
