19
Iteration:  2914charge 0 multiplicity 1
 C         0.204109        -0.680989         0.432527
 C         1.564983        -0.096081         0.260157
 C         1.907558         0.688048        -0.878306
 C         3.365635         0.610780        -0.312134
 C         4.293622        -0.158521        -1.292764
 O         3.388050        -1.325231        -1.259346
 C         2.891625        -0.849240         0.038534
 C         3.177497         1.190688         1.104231
 O         1.959497         0.578741         1.504058
 H        -0.056451        -0.688846         1.516151
 H        -0.604119        -0.121310        -0.110010
 H         0.136963        -1.680559        -0.024114
 H         1.764735         0.212852        -1.808509
 H         1.466072         1.577138        -0.884476
 H         4.409242         0.233448        -2.296018
 H         5.247261        -0.449006        -0.873489
 H         3.131528        -1.566360         0.881473
 H         4.071548         0.804278         1.700975
 H         3.167303         2.344589         1.315507
