19
Iteration:  1227charge 0 multiplicity 1
 C         0.147306        -0.823731         0.574452
 C         1.492401        -0.266168         0.125863
 C         2.026543         0.090283        -1.265642
 C         3.374844         0.465128        -0.387632
 C         4.473934        -0.433952        -0.898307
 O         3.809712        -1.539380        -0.171849
 C         2.916879        -0.643468         0.566428
 C         2.915216         1.788638         0.188343
 O         1.567422         1.211438         0.852100
 H         0.153223        -1.886759         0.239227
 H         0.111432        -0.768301         1.672376
 H        -0.619014        -0.188816         0.014063
 H         2.182738        -0.846231        -1.941899
 H         1.538769         0.910749        -1.771175
 H         4.697167        -0.596265        -1.982461
 H         5.522888        -0.349569        -0.386413
 H         3.189924        -0.749078         1.681912
 H         3.484737         2.195482         0.975488
 H         2.692559         2.592375        -0.649910
