19
Iteration:  1767charge 0 multiplicity 1
 C         0.197196        -0.723106         0.566303
 C         1.476492        -0.141218         0.130228
 C         1.941325         0.478774        -1.164031
 C         3.343038         0.498036        -0.353717
 C         4.382821        -0.363586        -1.019866
 O         3.755098        -1.572447        -0.614752
 C         2.932058        -0.845557         0.404276
 C         2.974549         1.586419         0.527295
 O         1.730802         0.941447         1.108044
 H        -0.269178        -0.266305         1.388925
 H        -0.517891        -0.827528        -0.244717
 H         0.501313        -1.755689         0.798875
 H         1.794813        -0.156099        -2.002309
 H         1.480023         1.543412        -1.404232
 H         4.371810        -0.448485        -2.125965
 H         5.444119        -0.204841        -0.560712
 H         3.295940        -0.988024         1.501119
 H         3.641558         1.991995         1.295510
 H         2.672806         2.505600        -0.055707
