19
Iteration:  2677charge 0 multiplicity 1
 C         0.170019        -0.659674         0.584876
 C         1.534593        -0.138064         0.172913
 C         1.956714         0.738733        -0.972405
 C         3.369076         0.583242        -0.373717
 C         4.308861        -0.229498        -1.192525
 O         3.461728        -1.444945        -1.074975
 C         2.963483        -0.773307         0.082666
 C         3.088038         1.301648         0.983049
 O         1.910751         0.563360         1.367018
 H        -0.383688        -0.189083         1.296151
 H        -0.366750        -0.574714        -0.376988
 H         0.170548        -1.691304         0.880611
 H         1.982286         0.188379        -2.062340
 H         1.474940         1.809402        -0.944414
 H         4.392627         0.038756        -2.293512
 H         5.328675        -0.346546        -0.693853
 H         3.349806        -1.358871         0.984312
 H         3.789922         1.138101         1.814182
 H         2.769705         2.385683         0.865049
