19
Iteration:  2312charge 0 multiplicity 1
 C         0.153334        -0.795416         0.580994
 C         1.484354        -0.182079         0.112551
 C         2.003170         0.785463        -1.061938
 C         3.409983         0.547201        -0.300051
 C         4.305841        -0.290090        -1.189139
 O         3.506745        -1.506965        -0.947467
 C         2.878022        -0.832706         0.173898
 C         3.101660         1.438059         0.951077
 O         1.882042         0.732223         1.269061
 H        -0.443954         0.050724         0.899515
 H        -0.375998        -1.337358        -0.131784
 H         0.417461        -1.460162         1.398536
 H         2.120985         0.152224        -2.001031
 H         1.542488         1.765020        -1.339144
 H         4.257580        -0.004212        -2.213821
 H         5.333698        -0.330681        -0.912399
 H         3.247565        -1.355367         1.157728
 H         3.799107         1.523633         1.682582
 H         2.998730         2.519003         0.668038
