19
Iteration:  3202
 C         0.219568        -0.757785         0.444159
 C         1.487744        -0.079426         0.213646
 C         1.905087         1.010604        -0.775838
 C         3.341312         0.540396        -0.245627
 C         4.208458        -0.126702        -1.290350
 O         3.435425        -1.322025        -1.308163
 C         2.740442        -0.920821        -0.085552
 C         3.317277         1.080001         1.098705
 O         2.035136         0.496493         1.551926
 H         0.081852        -1.248785         1.382129
 H        -0.581647        -0.074356         0.398757
 H         0.175646        -1.444924        -0.345167
 H         1.668688         0.931507        -1.988700
 H         1.486723         1.983656        -0.409638
 H         4.329265         0.478018        -2.242369
 H         5.230548        -0.468643        -0.961047
 H         3.077024        -1.571581         0.721332
 H         4.160022         0.711775         1.662387
 H         3.359470         2.128685         1.132654
