19
Iteration:  1263
 C         0.177200        -0.712648         0.575518
 C         1.485538        -0.179706         0.188812
 C         1.949931         0.047739        -1.294141
 C         3.276565         0.496037        -0.542773
 C         4.516816        -0.438707        -0.815365
 O         3.832943        -1.566025        -0.225429
 C         3.000675        -0.712310         0.518405
 C         2.940590         1.745027         0.264070
 O         1.550658         1.152587         0.854192
 H         0.225094        -1.572707         1.325290
 H        -0.558014         0.065672         0.931692
 H        -0.344410        -1.210300        -0.307996
 H         2.147493        -0.766284        -1.905668
 H         1.405009         0.863383        -1.891076
 H         4.963965        -0.476980        -1.810916
 H         5.257098         0.033032        -0.017047
 H         3.429215        -0.609898         1.546457
 H         3.572419         1.830878         1.212183
 H         2.751619         2.695249        -0.307409
