19
Iteration:   313
 C         0.265163        -0.827091         0.648130
 C         1.489879        -0.149625         0.163694
 C         2.123566        -0.579310        -1.135572
 C         3.300638         0.276446        -0.630995
 C         4.605946        -0.423458        -0.477686
 O         4.015762        -1.249863         0.584585
 C         2.887789        -0.217804         0.839219
 C         2.678520         1.706696        -0.543428
 O         1.384293         1.267805         0.099675
 H         0.448753        -1.854338         1.034281
 H        -0.296207        -0.236524         1.400913
 H        -0.416945        -0.891215        -0.243930
 H         2.168738        -1.693955        -1.220269
 H         1.602936        -0.129319        -2.013275
 H         5.170481        -0.981058        -1.299256
 H         5.351089         0.270170        -0.033811
 H         2.997819         0.527522         1.719679
 H         3.109029         2.261594         0.366960
 H         2.402739         2.208066        -1.445344
