19
Iteration:   791
 C         0.155323        -0.733233         0.617153
 C         1.450053        -0.262315         0.154483
 C         2.069353        -0.211682        -1.277999
 C         3.331836         0.427802        -0.460306
 C         4.534065        -0.448313        -0.630999
 O         3.987557        -1.500958         0.183199
 C         2.970229        -0.474298         0.706550
 C         2.707657         1.740440        -0.200205
 O         1.501257         1.246847         0.502077
 H        -0.528854        -0.143003         0.000408
 H         0.130447        -1.869374         0.540687
 H        -0.038213        -0.372116         1.610072
 H         2.364320        -1.007734        -1.953844
 H         1.614258         0.736383        -1.833715
 H         4.708594        -0.721659        -1.696099
 H         5.574462        -0.132236        -0.250379
 H         3.300046        -0.208367         1.714447
 H         3.269262         2.275957         0.610755
 H         2.319899         2.232132        -1.032506
