19
Iteration:  2727charge 0 multiplicity 1
 C         0.064943        -0.884334         0.478598
 C         1.460488        -0.066624         0.311080
 C         1.912704         0.777730        -0.916398
 C         3.367039         0.414554        -0.291291
 C         4.364903        -0.141740        -1.244993
 O         3.511660        -1.394405        -1.205944
 C         2.877595        -0.948835         0.102735
 C         3.261029         1.270202         0.971114
 O         1.898535         0.838722         1.396260
 H        -0.906614        -0.261092         0.187113
 H         0.073735        -1.797089        -0.108940
 H        -0.111079        -1.026399         1.570725
 H         1.863439         0.334858        -1.819740
 H         1.663643         1.772649        -0.949938
 H         4.479944         0.387775        -2.153541
 H         5.298794        -0.387011        -0.797774
 H         3.396536        -1.364210         0.953929
 H         3.951538         0.979887         1.786335
 H         3.177554         2.379037         0.914463
