19
Iteration:  2986charge 0 multiplicity 1
 C         0.140195        -0.694376         0.503978
 C         1.486130        -0.141584         0.268665
 C         1.886281         0.783350        -0.896197
 C         3.339454         0.588034        -0.333942
 C         4.376120        -0.116971        -1.232537
 O         3.403500        -1.315935        -1.255563
 C         2.830476        -0.818727        -0.030086
 C         3.257942         1.098727         1.063931
 O         1.964700         0.564025         1.489801
 H        -0.635258         0.073182         0.898316
 H        -0.182575        -1.347122        -0.372253
 H         0.214621        -1.479491         1.391481
 H         1.736155         0.267956        -1.802651
 H         1.529973         1.977595        -1.067389
 H         4.625092         0.393317        -2.183553
 H         5.351356        -0.422804        -0.718885
 H         3.392728        -1.436401         0.703589
 H         4.050154         0.641055         1.665618
 H         3.377756         2.159210         1.169956
