19
Iteration:  1952
 C         0.270619        -0.761550         0.599408
 C         1.486058        -0.100791         0.124414
 C         1.966092         0.559633        -1.070061
 C         3.339285         0.470537        -0.309049
 C         4.454750        -0.318494        -1.084705
 O         3.603095        -1.597529        -0.741692
 C         2.874350        -0.872380         0.244969
 C         2.949238         1.593597         0.659069
 O         1.807611         0.946070         1.146690
 H         0.610676        -1.615930         1.170064
 H        -0.524276        -0.147615         1.135609
 H        -0.266875        -1.193043        -0.339408
 H         1.935353        -0.225984        -1.840628
 H         1.597377         1.565658        -1.220501
 H         4.434684        -0.277831        -2.130230
 H         5.431864        -0.460729        -0.638268
 H         3.109397        -1.417422         1.159231
 H         3.587423         1.989363         1.626608
 H         2.586107         2.539593         0.193308
