19
Iteration:  2537charge 0 multiplicity 1
 C         0.055238        -0.730489         0.521097
 C         1.513626        -0.159008         0.321623
 C         1.922212         0.596665        -1.020140
 C         3.299171         0.621599        -0.426143
 C         4.366411        -0.242179        -1.219422
 O         3.507038        -1.411418        -1.069454
 C         2.953777        -0.805053         0.114490
 C         3.260995         1.214105         1.021972
 O         1.840263         0.840177         1.318908
 H         0.159050        -1.843838         0.681698
 H        -0.560712        -0.194097         1.449195
 H        -0.466891        -0.761111        -0.528154
 H         1.934764        -0.015844        -1.944855
 H         1.291590         1.417266        -1.117059
 H         4.578108         0.265695        -2.219501
 H         5.328568        -0.389470        -0.679931
 H         3.490134        -1.221281         1.068252
 H         4.040510         0.800691         1.778172
 H         3.343214         2.317365         1.316347
