19
Iteration:  4708charge 0 multiplicity 1
 C         0.188817        -0.742058         0.432243
 C         1.541805        -0.173236         0.316123
 C         1.992713         1.010281        -0.580258
 C         3.402772         0.512967        -0.208253
 C         4.200673        -0.008525        -1.338282
 O         3.203955        -1.034151        -1.616132
 C         2.764526        -0.884048        -0.185767
 C         3.426425         0.838549         1.256230
 O         2.020879         0.383320         1.578292
 H        -0.075901        -1.133139        -0.581656
 H         0.148788        -1.501351         1.231010
 H        -0.441018         0.108653         0.576593
 H         1.800526         0.912012        -1.629703
 H         1.733111         2.060327        -0.093575
 H         4.366500         0.678675        -2.177690
 H         5.182849        -0.596296        -1.207338
 H         3.099017        -1.704177         0.293750
 H         4.046642         0.252204         1.929379
 H         3.478467         1.867262         1.512783
