19
Iteration:  1581
 C         0.133382        -0.728244         0.589524
 C         1.505186        -0.242316         0.156074
 C         1.927907         0.279223        -1.293334
 C         3.303454         0.621833        -0.496805
 C         4.525394        -0.440841        -0.926203
 O         3.729685        -1.556143        -0.478687
 C         2.950778        -0.670094         0.357947
 C         2.938307         1.667830         0.540496
 O         1.700212         0.963267         1.098835
 H        -0.673004        -0.374771        -0.083534
 H         0.131794        -1.809721         0.659912
 H        -0.032754        -0.399146         1.597330
 H         1.991533        -0.626560        -2.004152
 H         1.380703         1.064897        -1.841796
 H         4.554480        -0.573459        -1.992174
 H         5.512018        -0.284037        -0.477991
 H         3.364606        -0.708760         1.412301
 H         3.659594         1.832213         1.274003
 H         2.975242         2.696468        -0.026941
