19
Iteration:  4393
 C         0.164604        -0.767943         0.443239
 C         1.505076        -0.124851         0.244779
 C         1.988426         1.086278        -0.638773
 C         3.421393         0.559052        -0.179330
 C         4.246815         0.041215        -1.374773
 O         3.221311        -1.112532        -1.496889
 C         2.739719        -0.872854        -0.169734
 C         3.429563         0.808986         1.274944
 O         2.075410         0.331140         1.563071
 H        -0.377801        -0.655101        -0.487568
 H         0.327405        -1.822239         0.629263
 H        -0.340724        -0.325065         1.209545
 H         1.732606         1.004107        -1.906910
 H         1.698186         2.127236        -0.399428
 H         4.057727         0.685584        -2.263279
 H         5.235563        -0.436419        -1.449055
 H         2.662053        -1.646801         0.477924
 H         4.018899         0.134039         1.825399
 H         3.447738         1.854615         1.658995
