19
Iteration:  1035
 C         0.283110        -0.802891         0.610419
 C         1.514886        -0.176517         0.153676
 C         2.029615        -0.049035        -1.275977
 C         3.296780         0.475114        -0.460406
 C         4.481011        -0.390512        -0.735067
 O         3.761581        -1.557164        -0.042299
 C         2.975678        -0.550863         0.586767
 C         2.871511         1.741072         0.073342
 O         1.515714         1.208074         0.638944
 H         0.541730        -1.819822         0.831036
 H        -0.072986        -0.262355         1.456235
 H        -0.482113        -0.754081        -0.166020
 H         2.171343        -1.079881        -1.664922
 H         1.602879         0.612938        -2.031292
 H         4.759472        -0.561124        -1.826432
 H         5.432126        -0.313031        -0.174426
 H         3.238310        -0.591864         1.649043
 H         3.498631         1.993107         1.015757
 H         2.593071         2.595586        -0.497493
