19
Iteration:  1990
 C         0.163617        -0.805993         0.450163
 C         1.503399        -0.151577         0.259209
 C         1.840503         0.370625        -1.078864
 C         3.285816         0.600691        -0.452235
 C         4.418026        -0.287136        -1.055644
 O         3.551508        -1.493761        -0.747236
 C         2.939617        -0.772891         0.266419
 C         3.164111         1.446620         0.803044
 O         1.829165         0.986408         1.150157
 H        -0.071867        -0.795143         1.531249
 H        -0.605847        -0.300030        -0.085380
 H         0.188758        -1.793608         0.087626
 H         1.918702        -0.267492        -1.969983
 H         1.203487         1.247634        -1.406069
 H         4.764969        -0.288131        -2.145400
 H         5.371075        -0.222185        -0.486967
 H         3.435010        -0.910968         1.299615
 H         3.963689         1.311805         1.420824
 H         3.112022         2.515020         0.569053
