19
Iteration:  4608charge 0 multiplicity 1
 C         0.057787        -0.574003         0.507385
 C         1.516725        -0.072420         0.274120
 C         1.984504         0.937478        -0.702456
 C         3.342425         0.504104        -0.283399
 C         4.185863         0.106856        -1.378373
 O         3.354777        -1.097464        -1.564035
 C         2.817758        -0.914296        -0.148638
 C         3.427501         0.786508         1.279193
 O         2.042691         0.254697         1.616561
 H        -0.474757        -0.803915        -0.439546
 H         0.106850        -1.519787         1.037802
 H        -0.506304         0.045925         1.154918
 H         1.724319         0.846031        -1.733261
 H         1.676535         2.025189        -0.437126
 H         4.147376         0.684817        -2.271304
 H         5.201510        -0.128883        -1.055601
 H         3.228766        -1.598359         0.440710
 H         4.209617         0.107550         1.673215
 H         3.491236         1.707209         1.767671
