19
Iteration:  2720charge 0 multiplicity 1
 C         0.028208        -0.847733         0.472268
 C         1.442554        -0.101993         0.332681
 C         1.910349         0.734994        -0.882546
 C         3.394622         0.464494        -0.270061
 C         4.380742        -0.149884        -1.222678
 O         3.499207        -1.366471        -1.205639
 C         2.851745        -0.941504         0.089250
 C         3.270803         1.267065         0.994850
 O         1.929786         0.825152         1.356099
 H        -0.884922        -0.361886         0.319051
 H         0.060338        -1.644939        -0.287490
 H         0.067522        -1.262971         1.491978
 H         1.651976         0.100973        -1.915371
 H         1.621822         1.873883        -1.007861
 H         4.522724         0.299779        -2.262532
 H         5.410871        -0.352839        -0.770115
 H         3.339711        -1.351830         0.971066
 H         3.975710         1.153492         1.774861
 H         3.176998         2.283283         0.675294
