19
Iteration:  3146
 C         0.160003        -0.672845         0.454492
 C         1.568972        -0.125505         0.234233
 C         1.943351         0.765127        -0.853270
 C         3.386131         0.536237        -0.230526
 C         4.267501        -0.017911        -1.326842
 O         3.308696        -1.234975        -1.348636
 C         2.828915        -0.989268         0.029795
 C         3.302666         1.100280         1.216474
 O         1.983711         0.537045         1.445441
 H         0.094168        -1.698638         0.519330
 H        -0.102810        -0.178621         1.384609
 H        -0.554377        -0.297488        -0.153144
 H         1.810734         0.164125        -1.956446
 H         1.311216         1.741918        -0.839449
 H         4.548925         0.543536        -2.277116
 H         5.181921        -0.463854        -0.869554
 H         3.397635        -1.511339         0.792894
 H         4.072589         0.752684         1.859640
 H         3.223604         2.136791         1.253601
