19
Iteration:   360
 C         0.202698        -0.745810         0.695732
 C         1.509185        -0.232241         0.155884
 C         2.144661        -0.480649        -1.218993
 C         3.349109         0.326642        -0.609777
 C         4.716678        -0.425402        -0.402756
 O         3.970751        -1.303990         0.555735
 C         2.964576        -0.259756         0.747154
 C         2.590878         1.716080        -0.546119
 O         1.325862         1.215427         0.165160
 H         0.226804        -0.585500         1.732938
 H        -0.606666        -0.117041         0.294257
 H        -0.038799        -1.767069         0.508085
 H         2.464141        -1.498628        -1.359564
 H         1.672405        -0.076516        -2.097461
 H         5.116492        -1.000143        -1.241160
 H         5.508404         0.157986         0.026006
 H         3.053337         0.226838         1.706697
 H         3.064227         2.374221         0.081807
 H         2.215239         2.110759        -1.463910
