19
Iteration:  3522
 C         0.166208        -0.730468         0.483344
 C         1.471070        -0.122291         0.215854
 C         1.898414         1.026420        -0.705039
 C         3.377101         0.579874        -0.233966
 C         4.274206         0.036812        -1.340670
 O         3.289061        -1.209090        -1.432820
 C         2.772035        -0.895858        -0.123094
 C         3.412548         0.888283         1.256208
 O         2.066945         0.365863         1.470034
 H         0.270435        -1.780394         0.762768
 H        -0.398589        -0.166985         1.242238
 H        -0.484011        -0.757970        -0.445374
 H         1.707831         0.774711        -1.740178
 H         1.596943         2.098004        -0.372058
 H         4.339292         0.562084        -2.284445
 H         5.305994        -0.247377        -1.082050
 H         3.108825        -1.575277         0.678233
 H         4.151635         0.345760         1.894296
 H         3.399999         2.018696         1.669848
