19
Iteration:   962charge 0 multiplicity 1
 C         0.203503        -0.748098         0.617937
 C         1.510977        -0.197961         0.076131
 C         2.066761        -0.124270        -1.297369
 C         3.307889         0.456045        -0.598207
 C         4.544458        -0.418379        -0.707303
 O         3.836734        -1.508683         0.076136
 C         2.966659        -0.594877         0.559844
 C         2.789726         1.774939         0.029714
 O         1.540435         1.188716         0.741494
 H        -0.595290        -0.296241        -0.023159
 H         0.196957        -1.885175         0.678036
 H         0.089976        -0.405660         1.657780
 H         2.162093        -1.080506        -1.730189
 H         1.563275         0.524964        -2.084090
 H         4.659950        -0.828587        -1.709518
 H         5.447547         0.003217        -0.259424
 H         3.119156        -0.382480         1.667079
 H         3.373583         2.279669         0.802728
 H         2.426014         2.607289        -0.674273
