19
Iteration:  3145charge 0 multiplicity 1
 C         0.158883        -0.675539         0.460877
 C         1.575474        -0.122930         0.239482
 C         1.945535         0.760422        -0.848340
 C         3.385676         0.533246        -0.228645
 C         4.269634        -0.013176        -1.325078
 O         3.312909        -1.237074        -1.347538
 C         2.823716        -0.986338         0.017889
 C         3.297725         1.100108         1.208913
 O         1.982026         0.535742         1.439059
 H         0.095929        -1.704749         0.515955
 H        -0.135174        -0.177674         1.396599
 H        -0.565283        -0.243904        -0.127682
 H         1.833307         0.157583        -1.933505
 H         1.310366         1.766082        -0.826805
 H         4.541684         0.571491        -2.273092
 H         5.185147        -0.480688        -0.837981
 H         3.381992        -1.530235         0.788537
 H         4.056564         0.784184         1.859022
 H         3.249638         2.104858         1.228364
