19
Iteration:   850charge 0 multiplicity 1
 C         0.243932        -0.852258         0.638919
 C         1.460696        -0.226921         0.166736
 C         1.941011        -0.097347        -1.238456
 C         3.303854         0.404894        -0.566971
 C         4.590864        -0.419872        -0.635241
 O         3.869858        -1.469434         0.161527
 C         2.926229        -0.548149         0.643144
 C         2.853660         1.727744        -0.082335
 O         1.530686         1.303140         0.454025
 H         0.393099        -1.937789         0.639168
 H        -0.067533        -0.576898         1.603718
 H        -0.597229        -0.577126        -0.060443
 H         2.234039        -0.977730        -1.864656
 H         1.417787         0.605385        -1.779764
 H         5.056064        -0.875880        -1.540747
 H         5.372195        -0.014316         0.001901
 H         3.071425        -0.340211         1.744148
 H         3.403278         2.124710         0.724318
 H         2.619967         2.565370        -0.855046
