19
Iteration:   900charge 0 multiplicity 1
 C         0.240655        -0.815245         0.618734
 C         1.493870        -0.193521         0.169807
 C         2.074445        -0.184852        -1.255513
 C         3.354502         0.473136        -0.512441
 C         4.527172        -0.448439        -0.644613
 O         3.822868        -1.522794         0.012542
 C         2.934157        -0.456207         0.644078
 C         2.759080         1.785859         0.011394
 O         1.553106         1.233498         0.516165
 H         0.098876        -0.543433         1.701769
 H        -0.646879        -0.280634         0.109015
 H         0.103100        -1.877604         0.467653
 H         2.133853        -1.247636        -1.471209
 H         1.478590         0.463302        -2.021296
 H         4.675934        -0.822179        -1.656710
 H         5.549494        -0.173231        -0.281282
 H         3.252754        -0.367275         1.666620
 H         3.330683         2.169126         0.971233
 H         2.558422         2.570361        -0.753617
