19
Iteration:  4551
 C         0.166607        -0.760192         0.415794
 C         1.515542        -0.130629         0.323683
 C         1.956770         1.077157        -0.655674
 C         3.404144         0.471965        -0.215247
 C         4.230243        -0.050681        -1.314856
 O         3.165800        -1.034021        -1.609472
 C         2.802334        -0.864671        -0.241934
 C         3.438084         0.862105         1.280736
 O         2.088330         0.351033         1.635427
 H        -0.383053        -0.617641        -0.466278
 H         0.157574        -1.782394         0.642422
 H        -0.521280        -0.218093         1.072076
 H         1.697551         0.674733        -1.775870
 H         1.647099         2.120941        -0.303572
 H         4.573576         0.562765        -2.167906
 H         5.126406        -0.543346        -0.827473
 H         3.123582        -1.603791         0.359912
 H         4.179124         0.343096         1.960820
 H         3.321121         1.909148         1.532830
