19
Iteration:  4549charge 0 multiplicity 1
 C         0.170996        -0.756428         0.410909
 C         1.501628        -0.120798         0.325070
 C         1.949278         1.069685        -0.670010
 C         3.404987         0.491496        -0.205131
 C         4.231496        -0.048982        -1.319251
 O         3.163344        -1.038681        -1.597632
 C         2.793503        -0.866628        -0.257056
 C         3.458171         0.850609         1.283966
 O         2.084184         0.350248         1.638175
 H        -0.333888        -0.633202        -0.490830
 H         0.215048        -1.802658         0.665569
 H        -0.499170        -0.203428         1.080619
 H         1.672918         0.677058        -1.739884
 H         1.649371         2.058215        -0.327822
 H         4.584518         0.590274        -2.203669
 H         5.161810        -0.520359        -0.812352
 H         3.123102        -1.656099         0.378329
 H         4.165722         0.313550         1.959854
 H         3.330730         1.942856         1.571620
