19
Iteration:  1438
 C         0.164962        -0.728392         0.542583
 C         1.484871        -0.184481         0.214284
 C         1.979689         0.161644        -1.200957
 C         3.312303         0.479013        -0.433465
 C         4.485060        -0.320365        -0.912609
 O         3.753879        -1.560913        -0.419939
 C         2.987479        -0.738775         0.447217
 C         2.896506         1.663277         0.472642
 O         1.667309         1.111746         0.884594
 H         0.175550        -1.843394         0.757592
 H        -0.285455        -0.188914         1.415674
 H        -0.546040        -0.631693        -0.280178
 H         2.129605        -0.799167        -1.822045
 H         1.522666         0.857211        -1.922024
 H         4.703109        -0.453709        -1.946871
 H         5.422875        -0.446351        -0.354995
 H         3.306683        -0.777905         1.538292
 H         3.515858         2.001047         1.250353
 H         2.742275         2.671449        -0.057631
