19
Iteration:   653
 C         0.111602        -0.794233         0.613231
 C         1.481415        -0.263922         0.179134
 C         2.008677        -0.389917        -1.243594
 C         3.274822         0.376572        -0.677076
 C         4.607839        -0.326573        -0.571840
 O         3.987896        -1.439311         0.356241
 C         2.931238        -0.426418         0.759231
 C         2.785493         1.787984        -0.239806
 O         1.520992         1.280397         0.336487
 H        -0.313641        -1.304130        -0.256954
 H         0.140538        -1.574573         1.398518
 H        -0.520031         0.029215         0.952193
 H         2.105362        -1.393016        -1.415753
 H         1.335229         0.125394        -1.851586
 H         5.137208        -0.631299        -1.483917
 H         5.287195         0.265319        -0.002703
 H         3.325505         0.098419         1.654887
 H         3.393056         1.960515         0.576302
 H         2.712816         2.595649        -0.914174
