19
Iteration:   638
 C         0.085444        -0.775622         0.645795
 C         1.469087        -0.211577         0.199990
 C         2.011807        -0.307123        -1.242711
 C         3.265357         0.356125        -0.615048
 C         4.584301        -0.411761        -0.506723
 O         4.079387        -1.371652         0.333158
 C         2.978856        -0.434303         0.684575
 C         2.802414         1.680678        -0.253353
 O         1.456318         1.256576         0.327174
 H        -0.647824        -0.725799        -0.179993
 H         0.203945        -1.839877         1.045148
 H        -0.385178        -0.101389         1.391013
 H         2.376532        -1.323924        -1.646131
 H         1.530403         0.291998        -2.148706
 H         5.006052        -0.951579        -1.358285
 H         5.365406         0.222048        -0.016902
 H         3.015588        -0.085580         1.745132
 H         3.351913         2.426031         0.377956
 H         2.406233         2.362983        -1.149296
