19
Iteration:  2379
 C         0.108176        -0.709830         0.474931
 C         1.486254        -0.210585         0.180422
 C         1.889529         0.565736        -1.004884
 C         3.310221         0.616951        -0.380591
 C         4.418976        -0.252665        -1.179487
 O         3.473320        -1.347550        -0.994661
 C         2.910985        -0.828008         0.214721
 C         3.191816         1.321121         0.894851
 O         1.966820         0.738717         1.369748
 H        -0.562194        -0.338723        -0.330301
 H        -0.080831        -1.723366         0.551938
 H        -0.279453        -0.285245         1.371911
 H         1.955063        -0.147219        -1.814884
 H         1.354910         1.520553        -1.353723
 H         4.551449        -0.176569        -2.213284
 H         5.364411        -0.400247        -0.700870
 H         3.122669        -1.327030         1.257978
 H         3.900830         1.330191         1.598557
 H         2.998830         2.435412         0.795276
