19
Iteration:  2695
 C         0.216779        -0.730881         0.441226
 C         1.584423        -0.198770         0.235542
 C         1.899012         0.718018        -1.017895
 C         3.324861         0.561890        -0.314970
 C         4.315395        -0.192604        -1.183897
 O         3.424441        -1.390825        -1.149720
 C         2.883174        -0.946181         0.139078
 C         3.163800         1.355269         0.981292
 O         1.913378         0.686531         1.434028
 H        -0.227165         0.178581         1.042994
 H        -0.433199        -0.936182        -0.385360
 H         0.266448        -1.556822         1.190823
 H         1.876941         0.224196        -1.973888
 H         1.481556         1.697038        -1.090137
 H         4.600703         0.217622        -2.134495
 H         5.212642        -0.438053        -0.615039
 H         3.336482        -1.298803         1.000577
 H         3.994528         1.153493         1.631165
 H         2.989089         2.399084         0.978723
