19
Iteration:  3196
 C         0.204265        -0.735230         0.422239
 C         1.503206        -0.034429         0.211484
 C         1.858017         1.015480        -0.761859
 C         3.312867         0.505985        -0.255817
 C         4.232175        -0.144504        -1.297825
 O         3.439678        -1.341845        -1.333827
 C         2.773383        -0.918179        -0.024451
 C         3.334779         1.111151         1.111816
 O         2.017261         0.485304         1.536833
 H         0.292003        -1.487525         1.306660
 H        -0.754556        -0.114345         0.529685
 H         0.108360        -1.499127        -0.492309
 H         1.656864         0.950023        -1.716038
 H         1.687947         2.025495        -0.400545
 H         4.319356         0.430247        -2.198593
 H         5.285190        -0.294256        -1.037858
 H         3.038006        -1.674908         0.742900
 H         4.198593         0.612197         1.682592
 H         3.386307         2.326239         1.027349
