19
Iteration:  1448charge 0 multiplicity 1
 C         0.052790        -0.817986         0.522554
 C         1.442637        -0.148034         0.162949
 C         2.025655         0.143253        -1.170590
 C         3.293231         0.504518        -0.435958
 C         4.510409        -0.337598        -0.928629
 O         3.765803        -1.598166        -0.443884
 C         2.992299        -0.707245         0.493114
 C         2.962593         1.649049         0.406150
 O         1.657576         1.179357         0.948324
 H         0.349035        -1.757683         1.029583
 H        -0.399016        -0.171212         1.296238
 H        -0.647067        -0.919920        -0.303475
 H         2.135357        -0.778454        -1.823043
 H         1.518820         1.056402        -1.609634
 H         4.745156        -0.277668        -1.964027
 H         5.386512        -0.129309        -0.262733
 H         3.492598        -0.817938         1.511577
 H         3.638491         1.583780         1.204005
 H         2.804918         2.666414        -0.177307
