19
Iteration:    48
 C         0.269426        -0.793261         0.696201
 C         1.471953        -0.186183         0.093943
 C         2.167832        -0.727344        -1.099014
 C         3.323250         0.276006        -0.661791
 C         4.668868        -0.349587        -0.339700
 O         4.014448        -1.141327         0.848216
 C         2.849198        -0.153371         0.791282
 C         2.594628         1.651694        -0.757380
 O         1.365333         1.229910        -0.070317
 H        -0.615631        -0.277040         0.361981
 H         0.134419        -1.831379         0.388762
 H         0.350610        -0.739103         1.775234
 H         2.465010        -1.778430        -0.905133
 H         1.781715        -0.601612        -2.099616
 H         5.173712        -0.983729        -1.021862
 H         5.316972         0.424663         0.123630
 H         2.927594         0.495339         1.714252
 H         3.100291         2.421920        -0.069331
 H         2.301158         2.038120        -1.822227
