19
Iteration:   607
 C         0.258307        -0.763842         0.651105
 C         1.509929        -0.213583         0.138078
 C         2.188774        -0.382032        -1.277594
 C         3.293286         0.415289        -0.557410
 C         4.540063        -0.467823        -0.543454
 O         3.954451        -1.431540         0.357053
 C         2.915651        -0.380241         0.753587
 C         2.638156         1.829621        -0.304545
 O         1.451745         1.250740         0.329486
 H        -0.511103         0.016759         0.672134
 H        -0.185279        -1.654306         0.070767
 H         0.391602        -1.067167         1.703275
 H         2.583206        -1.380749        -1.314671
 H         1.712978         0.163083        -2.130658
 H         4.751303        -0.941674        -1.504898
 H         5.478729        -0.047122        -0.204032
 H         2.934467        -0.171161         1.869822
 H         3.167956         2.466905         0.355531
 H         2.204495         2.253775        -1.244669
