19
Iteration:   509
 C         0.217248        -0.735354         0.663956
 C         1.525635        -0.266608         0.130104
 C         2.125792        -0.464564        -1.233891
 C         3.350475         0.423079        -0.573171
 C         4.640182        -0.369027        -0.532976
 O         3.958266        -1.435668         0.460887
 C         2.983271        -0.311008         0.748539
 C         2.615421         1.707843        -0.341019
 O         1.361814         1.238022         0.235775
 H         0.055061        -1.730003         1.120715
 H        -0.095726         0.025801         1.498396
 H        -0.551225        -0.510838        -0.134597
 H         2.366116        -1.477031        -1.620980
 H         1.565891         0.073851        -2.052387
 H         4.910602        -1.037639        -1.390308
 H         5.515096         0.166210        -0.077526
 H         3.215393         0.182527         1.748234
 H         3.181310         2.478637         0.225233
 H         2.376039         2.366101        -1.226015
