19
Iteration:  4455charge 0 multiplicity 1
 C         0.072278        -0.586951         0.466546
 C         1.506314        -0.158464         0.242263
 C         1.930138         0.925069        -0.696780
 C         3.399385         0.554092        -0.183382
 C         4.243701         0.090584        -1.296612
 O         3.190084        -1.030259        -1.641628
 C         2.828678        -0.892472        -0.131393
 C         3.416871         0.863864         1.275367
 O         2.139207         0.170631         1.616646
 H        -0.437735        -1.343876        -0.262571
 H        -0.120043        -0.935977         1.486541
 H        -0.613274         0.343986         0.326887
 H         1.838372         0.545401        -1.549990
 H         1.616572         1.944507        -0.545105
 H         4.515143         0.679169        -2.146265
 H         5.120021        -0.432386        -0.944401
 H         3.354563        -1.853698         0.378396
 H         4.385132         0.492137         1.696687
 H         3.456406         1.938009         1.400256
