19
Iteration:  3542
 C         0.194079        -0.616478         0.518277
 C         1.529750        -0.121019         0.258730
 C         1.965483         0.963455        -0.769444
 C         3.360870         0.581707        -0.243659
 C         4.172996        -0.004143        -1.407285
 O         3.373943        -1.151609        -1.481341
 C         2.867225        -0.884759        -0.150572
 C         3.308511         0.832016         1.257872
 O         1.964687         0.309565         1.616818
 H         0.223048        -1.426015         1.248862
 H        -0.452459         0.384411         0.835000
 H        -0.400062        -1.119399        -0.320197
 H         1.929750         0.686678        -1.818375
 H         1.650224         1.986739        -0.634049
 H         4.189436         0.684537        -2.241169
 H         5.215374        -0.176175        -1.208545
 H         3.170911        -1.578994         0.628747
 H         4.043312         0.322500         1.756073
 H         3.378938         1.869418         1.574344
