19
Iteration:   416
 C         0.247792        -0.912954         0.761829
 C         1.514247        -0.231712         0.132102
 C         2.140341        -0.429711        -1.292203
 C         3.286489         0.332406        -0.508602
 C         4.609365        -0.475561        -0.435042
 O         3.937250        -1.308287         0.527568
 C         2.931065        -0.245811         0.752007
 C         2.690979         1.744018        -0.474125
 O         1.400437         1.327705         0.118774
 H        -0.632381        -0.279163         0.673411
 H        -0.016379        -1.833598         0.298826
 H         0.445129        -1.102850         1.796296
 H         2.464226        -1.409019        -1.575550
 H         1.626909         0.095209        -2.091575
 H         4.733548        -1.038315        -1.318092
 H         5.480227         0.082370        -0.168063
 H         3.029984         0.291503         1.656607
 H         3.009729         2.469282         0.135997
 H         2.567885         2.243824        -1.405188
