19
Iteration:  3845
 C         0.030056        -0.632021         0.531962
 C         1.511577        -0.156879         0.261802
 C         1.887969         0.986393        -0.633094
 C         3.402051         0.632326        -0.225911
 C         4.239926         0.066947        -1.426499
 O         3.332394        -1.086477        -1.548644
 C         2.801654        -0.820159        -0.194483
 C         3.467993         0.704387         1.320942
 O         2.093192         0.270758         1.567690
 H        -0.235499        -1.621396         0.002135
 H        -0.261460        -0.652611         1.540348
 H        -0.530451         0.025526        -0.145779
 H         1.743238         0.850220        -1.798052
 H         1.385868         1.922031        -0.401360
 H         4.256220         0.611260        -2.403317
 H         5.189167        -0.354693        -1.276983
 H         3.139271        -1.621947         0.536512
 H         4.117375         0.020208         1.737827
 H         3.451885         1.677205         1.842246
