19
Iteration:  3396
 C         0.028474        -0.673586         0.503985
 C         1.479655        -0.200424         0.280926
 C         1.887028         0.982331        -0.799059
 C         3.291637         0.568579        -0.257859
 C         4.302586        -0.031771        -1.275006
 O         3.405395        -1.206418        -1.402103
 C         2.821673        -0.858224        -0.081023
 C         3.398986         0.973662         1.143647
 O         2.097527         0.363315         1.501940
 H        -0.550610        -0.127271        -0.334472
 H        -0.258914        -1.898761         0.557009
 H        -0.347258        -0.333708         1.498427
 H         1.825849         0.657324        -1.806128
 H         1.565317         1.972872        -0.715942
 H         4.286635         0.389696        -2.281194
 H         5.255741        -0.334173        -0.923889
 H         3.341816        -1.454603         0.685192
 H         4.201626         0.543455         1.740015
 H         3.271057         2.119045         1.351435
