19
Iteration:  3852charge 0 multiplicity 1
 C         0.014140        -0.647340         0.531040
 C         1.490157        -0.182577         0.235476
 C         1.841843         1.050874        -0.693028
 C         3.384860         0.585380        -0.204965
 C         4.278564         0.060554        -1.470132
 O         3.357612        -1.118147        -1.567433
 C         2.817577        -0.847065        -0.196478
 C         3.465116         0.727561         1.356532
 O         2.073205         0.289587         1.596695
 H        -0.152688        -1.720347         0.127637
 H        -0.271820        -0.556096         1.645177
 H        -0.627307         0.209181         0.106858
 H         1.663419         0.945144        -1.678109
 H         1.525222         2.014003        -0.324653
 H         4.239924         0.762840        -2.292274
 H         5.353085        -0.201190        -1.151542
 H         3.164039        -1.645994         0.427957
 H         4.221738        -0.054974         1.667892
 H         3.640477         1.707541         1.851357
