19
Iteration:  3788
 C         0.107686        -0.742766         0.391147
 C         1.512652        -0.121311         0.313618
 C         2.028145         1.042870        -0.528653
 C         3.438509         0.457100        -0.169585
 C         4.233987        -0.018258        -1.407665
 O         3.153372        -0.984711        -1.630468
 C         2.846126        -0.918081        -0.195795
 C         3.450351         0.967598         1.281066
 O         2.031043         0.274850         1.581064
 H         0.091992        -1.854308        -0.071267
 H        -0.124478        -0.892586         1.515162
 H        -0.841421        -0.122005         0.109514
 H         1.743165         0.806008        -1.590865
 H         1.916404         2.035015        -0.188955
 H         4.360392         0.545947        -2.313943
 H         5.085291        -0.652759        -1.179815
 H         3.086761        -1.839464         0.374963
 H         4.104476         0.483342         1.875052
 H         3.369604         2.022811         1.601430
