19
Iteration:  3818charge 0 multiplicity 1
 C         0.165928        -0.658581         0.378572
 C         1.561753        -0.135612         0.279965
 C         1.942472         1.060067        -0.672069
 C         3.340065         0.451498        -0.203973
 C         4.196392         0.074425        -1.349208
 O         3.190826        -1.068918        -1.627112
 C         2.796804        -0.941230        -0.142335
 C         3.426387         0.909103         1.270175
 O         2.121242         0.225675         1.700000
 H        -0.037090        -1.648731        -0.102392
 H        -0.160547        -0.714073         1.497250
 H        -0.464893        -0.038359        -0.320974
 H         1.668887         1.020121        -1.652734
 H         1.766230         2.057849        -0.225775
 H         4.281760         0.735286        -2.211374
 H         5.199888        -0.471667        -1.218126
 H         3.098223        -1.780812         0.452018
 H         4.318721         0.439359         1.858714
 H         3.330873         1.947808         1.579245
