19
Iteration:  1784
 C         0.207418        -0.871150         0.594853
 C         1.466237        -0.173701         0.250220
 C         1.945379         0.534059        -1.163755
 C         3.294526         0.462442        -0.413173
 C         4.451094        -0.329962        -1.038683
 O         3.749323        -1.671941        -0.593682
 C         2.878226        -0.833539         0.273806
 C         2.981127         1.654384         0.552437
 O         1.743486         1.074255         1.109261
 H        -0.450084         0.025694         0.951502
 H        -0.312706        -1.201780        -0.330526
 H         0.362140        -1.701319         1.295976
 H         1.958327        -0.064364        -2.141091
 H         1.535992         1.466994        -1.342688
 H         4.684317        -0.146982        -2.091464
 H         5.378025        -0.350688        -0.548833
 H         3.006404        -1.108098         1.280896
 H         3.637647         1.808656         1.465880
 H         2.785273         2.699873         0.111845
