19
Iteration:  2283charge 0 multiplicity 1
 C         0.215791        -0.813779         0.400985
 C         1.519132        -0.142577         0.301769
 C         1.840625         0.596384        -1.030137
 C         3.365291         0.544656        -0.420476
 C         4.415771        -0.310309        -1.111368
 O         3.451765        -1.420447        -1.021630
 C         2.890347        -0.815561         0.233134
 C         3.202316         1.376420         0.868192
 O         1.824256         0.895070         1.362047
 H        -0.433604        -0.300494         1.290588
 H        -0.390387        -0.811338        -0.541578
 H         0.315320        -1.906440         0.678018
 H         1.682270        -0.132270        -1.726853
 H         1.424191         1.582951        -1.241300
 H         4.641536        -0.068976        -2.188999
 H         5.447315        -0.321019        -0.537817
 H         3.365397        -1.337426         1.011105
 H         4.151084         1.151051         1.600437
 H         3.139100         2.511170         0.867222
