19
Iteration:  3294
 C         0.143769        -0.715180         0.475938
 C         1.504027        -0.095556         0.260543
 C         1.914945         0.953099        -0.768109
 C         3.363983         0.601915        -0.326108
 C         4.303243        -0.078928        -1.393061
 O         3.391693        -1.300919        -1.317203
 C         2.822241        -0.819908        -0.054244
 C         3.285969         1.043176         1.139231
 O         2.024397         0.388602         1.527325
 H        -0.390379        -0.306027         1.399108
 H        -0.663751        -0.333953        -0.267716
 H         0.133488        -1.912432         0.572471
 H         1.644809         0.598322        -1.697154
 H         1.605352         2.004091        -0.722314
 H         4.443956         0.386632        -2.345984
 H         5.233258        -0.423602        -0.968729
 H         3.146062        -1.460749         0.801580
 H         4.089974         0.452431         1.784263
 H         3.199890         2.101957         1.626155
