19
Iteration:  1371
 C         0.190610        -0.825298         0.458544
 C         1.521974        -0.142062         0.182600
 C         1.880942         0.144054        -1.203706
 C         3.235925         0.463300        -0.479359
 C         4.526566        -0.403176        -0.848141
 O         3.745635        -1.562606        -0.327182
 C         2.920315        -0.701221         0.495017
 C         2.980028         1.657008         0.388663
 O         1.682830         1.227271         0.879155
 H        -0.467426        -1.002565        -0.387889
 H         0.619923        -1.814003         0.731843
 H        -0.168829        -0.659309         1.474989
 H         1.861764        -0.754521        -1.739118
 H         1.397943         0.989615        -1.815673
 H         4.809034        -0.491100        -1.867508
 H         5.306172        -0.001422        -0.212776
 H         3.346868        -0.582899         1.540586
 H         3.688298         1.849472         1.078991
 H         2.827430         2.708506         0.010175
