19
Iteration:   598
 C         0.244832        -0.812952         0.714241
 C         1.541783        -0.252129         0.109344
 C         2.191859        -0.382091        -1.219653
 C         3.329944         0.470517        -0.542553
 C         4.530579        -0.500789        -0.544567
 O         3.876116        -1.379278         0.350185
 C         2.951461        -0.361671         0.709456
 C         2.668188         1.790361        -0.316633
 O         1.425186         1.278241         0.321122
 H        -0.411342         0.046537         0.771269
 H        -0.168016        -1.430091        -0.172524
 H         0.296121        -1.465252         1.583883
 H         2.488390        -1.323856        -1.531367
 H         1.623809        -0.150043        -2.092823
 H         4.801646        -0.994414        -1.497796
 H         5.327077         0.049834        -0.040971
 H         3.145211        -0.168026         1.809609
 H         3.092961         2.488692         0.329165
 H         2.633391         2.345357        -1.238284
