19
Iteration:  2817charge 0 multiplicity 1
 C         0.114244        -0.724479         0.510931
 C         1.474839        -0.187478         0.256938
 C         1.858062         0.738511        -0.914554
 C         3.349848         0.495617        -0.272486
 C         4.358509        -0.138638        -1.215290
 O         3.512277        -1.327025        -1.299400
 C         2.857951        -0.923584         0.102080
 C         3.302017         1.214498         1.031052
 O         1.920652         0.707162         1.415758
 H        -0.091218        -1.731177         0.140949
 H        -0.165601        -0.742849         1.620792
 H        -0.529680         0.022844        -0.003445
 H         1.613807         0.419731        -1.962263
 H         1.341872         1.646513        -0.707014
 H         4.469335         0.368272        -2.178045
 H         5.323451        -0.410865        -0.803126
 H         3.318542        -1.462936         0.868170
 H         4.007633         0.998254         1.793043
 H         3.157831         2.291945         0.941012
