19
Iteration:  3316
 C         0.229273        -0.767422         0.421964
 C         1.515451        -0.111893         0.227467
 C         1.865539         0.953108        -0.822754
 C         3.341179         0.608612        -0.234225
 C         4.173560        -0.083078        -1.301824
 O         3.341557        -1.267072        -1.358233
 C         2.868637        -0.870031        -0.077040
 C         3.377554         0.982827         1.185905
 O         2.014242         0.515561         1.567096
 H        -0.473981        -0.156539         1.102800
 H        -0.270313        -0.554752        -0.599826
 H         0.257726        -1.895531         0.804773
 H         1.734958         0.548592        -1.802936
 H         1.419198         1.963645        -0.779521
 H         4.328720         0.262622        -2.300298
 H         5.140351        -0.474654        -0.992986
 H         3.278917        -1.506635         0.742486
 H         4.118433         0.399134         1.890205
 H         3.472253         2.071383         1.358816
