19
Iteration:  2635
 C         0.121672        -0.739557         0.438260
 C         1.497512        -0.195352         0.314881
 C         1.903603         0.681361        -0.915927
 C         3.272322         0.515957        -0.267017
 C         4.247302        -0.088003        -1.190064
 O         3.611601        -1.460591        -1.125540
 C         2.817737        -0.956093         0.091592
 C         3.255283         1.234751         0.936428
 O         1.934967         0.879699         1.338956
 H        -0.292150        -0.525050         1.439251
 H        -0.533113        -0.267666        -0.413263
 H         0.169947        -1.866561         0.371589
 H         1.859407         0.115491        -1.922603
 H         1.504915         1.721659        -0.858214
 H         4.327171         0.370454        -2.211719
 H         5.198456        -0.302842        -0.698221
 H         3.374927        -1.348580         1.114155
 H         4.063910         0.730067         1.642004
 H         3.352340         2.408952         0.785070
