19
Iteration:  4473charge 0 multiplicity 1
 C         0.083060        -0.521974         0.447618
 C         1.533224        -0.200224         0.337622
 C         1.969278         0.951366        -0.629632
 C         3.360902         0.464990        -0.206886
 C         4.262963         0.099863        -1.362121
 O         3.242320        -1.051871        -1.608584
 C         2.799014        -0.961152        -0.242371
 C         3.374887         0.912689         1.259449
 O         2.141230         0.176436         1.640268
 H        -0.092067        -1.348764        -0.175426
 H        -0.193189        -0.838252         1.446099
 H        -0.586144         0.333891         0.225281
 H         1.754136         0.714099        -1.885829
 H         1.616216         2.018021        -0.400384
 H         4.222638         0.836336        -2.199441
 H         5.258639        -0.324416        -1.195563
 H         3.112480        -1.689285         0.457275
 H         4.112036         0.548442         2.004233
 H         3.216427         1.975870         1.526608
