19
Iteration:  3439
 C         0.107374        -0.666788         0.530776
 C         1.501689        -0.131305         0.259766
 C         1.960105         0.988269        -0.731723
 C         3.405616         0.515283        -0.224761
 C         4.251300         0.025305        -1.381955
 O         3.400873        -1.278992        -1.452985
 C         2.813921        -0.919547        -0.125849
 C         3.317332         0.964649         1.207529
 O         1.997208         0.418882         1.519386
 H        -0.139357        -1.255045        -0.444823
 H         0.005520        -1.440014         1.484694
 H        -0.578167         0.196507         0.668187
 H         1.643476         0.899711        -1.720935
 H         1.645378         1.988461        -0.484825
 H         4.057473         0.690791        -2.230007
 H         5.271168        -0.250511        -1.117655
 H         3.227143        -1.582226         0.672204
 H         4.029653         0.408488         1.858611
 H         3.337944         1.965361         1.399180
