19
Iteration:   206charge 0 multiplicity 1
 C         0.217798        -0.809505         0.669102
 C         1.512994        -0.224702         0.159386
 C         2.173598        -0.654230        -1.050367
 C         3.229333         0.307926        -0.633894
 C         4.601258        -0.292887        -0.455797
 O         3.972635        -1.295029         0.676262
 C         2.952710        -0.112427         0.806779
 C         2.708889         1.666789        -0.581732
 O         1.357368         1.241977        -0.044823
 H        -0.497343        -0.043186         0.950169
 H        -0.256194        -1.426807        -0.131607
 H         0.474733        -1.405975         1.567260
 H         2.512596        -1.702066        -0.996979
 H         1.640174        -0.339797        -1.951971
 H         5.165034        -0.870090        -1.263239
 H         5.272415         0.364143         0.068128
 H         3.048227         0.485409         1.709062
 H         3.264239         2.286885         0.238250
 H         2.489353         2.126019        -1.681868
