19
Iteration:  1895charge 0 multiplicity 1
 C         0.232477        -0.697013         0.523938
 C         1.509159        -0.147712         0.190174
 C         1.824102         0.304939        -1.219196
 C         3.284666         0.572393        -0.471328
 C         4.434598        -0.309296        -1.028600
 O         3.657394        -1.556002        -0.711129
 C         2.930949        -0.721790         0.298385
 C         3.124679         1.501624         0.756925
 O         1.755688         0.970098         1.207015
 H         0.063020        -1.705471        -0.007839
 H         0.039134        -0.786575         1.632241
 H        -0.541809         0.007858         0.087137
 H         1.885201        -0.475138        -1.882764
 H         1.110031         1.060723        -1.642192
 H         4.557407        -0.243081        -2.103635
 H         5.429604        -0.298992        -0.577566
 H         3.238182        -0.986464         1.288901
 H         3.884834         1.367991         1.666600
 H         2.795568         2.577879         0.567629
