19
Iteration:   842charge 0 multiplicity 1
 C         0.205383        -0.871026         0.618546
 C         1.501328        -0.213724         0.223969
 C         1.975819        -0.145914        -1.288280
 C         3.269747         0.390149        -0.552398
 C         4.609397        -0.416990        -0.655020
 O         3.874236        -1.490302         0.124335
 C         2.906708        -0.450290         0.696129
 C         2.878255         1.723272        -0.070138
 O         1.494176         1.295101         0.465233
 H         0.195063        -1.958154         0.322170
 H         0.060080        -0.710410         1.716520
 H        -0.587798        -0.256604         0.087613
 H         2.150434        -1.129090        -1.787566
 H         1.414184         0.464900        -2.010752
 H         5.038849        -0.902579        -1.528547
 H         5.312381         0.170674        -0.059594
 H         3.176543        -0.315294         1.755547
 H         3.471469         2.161682         0.834369
 H         2.867465         2.602928        -0.864917
