19
Iteration:  2150charge 0 multiplicity 1
 C         0.124384        -0.790613         0.478011
 C         1.510534        -0.156914         0.216219
 C         1.935779         0.565728        -1.061239
 C         3.367474         0.572847        -0.341829
 C         4.467836        -0.375281        -1.157448
 O         3.520217        -1.456033        -0.912542
 C         2.887646        -0.756658         0.227162
 C         3.065124         1.464581         0.824217
 O         1.842906         0.834962         1.313461
 H        -0.089518        -1.771078        -0.087334
 H         0.057733        -1.040977         1.564947
 H        -0.619558         0.021586         0.269337
 H         1.915028        -0.161761        -1.889995
 H         1.449862         1.442359        -1.361855
 H         4.619017        -0.069906        -2.181990
 H         5.495062        -0.510304        -0.712557
 H         3.382321        -1.039483         1.093166
 H         3.818674         1.455011         1.644922
 H         3.009360         2.506675         0.591102
