19
Iteration:  2634charge 0 multiplicity 1
 C         0.124059        -0.738532         0.434290
 C         1.508597        -0.196646         0.319946
 C         1.907421         0.678541        -0.906966
 C         3.262820         0.518536        -0.274123
 C         4.248214        -0.087522        -1.187054
 O         3.605263        -1.454883        -1.126321
 C         2.815903        -0.954038         0.100225
 C         3.261326         1.233563         0.943900
 O         1.929848         0.875644         1.325788
 H        -0.262729        -0.539963         1.399111
 H        -0.522083        -0.260766        -0.381904
 H         0.158967        -1.841037         0.375521
 H         1.843697         0.064140        -1.934711
 H         1.483481         1.750856        -0.861045
 H         4.330604         0.356460        -2.223661
 H         5.221683        -0.332482        -0.707201
 H         3.390075        -1.346950         1.099639
 H         4.052259         0.741217         1.640665
 H         3.357894         2.408229         0.800116
