19
Iteration:  3058
 C         0.095111        -0.776688         0.426077
 C         1.521364        -0.169624         0.264315
 C         1.958246         0.799727        -0.827950
 C         3.367264         0.554907        -0.236467
 C         4.283816        -0.099731        -1.303777
 O         3.344545        -1.308509        -1.292997
 C         2.848896        -0.880899        -0.037057
 C         3.338877         1.168592         1.159956
 O         2.000032         0.620130         1.489995
 H        -0.463982        -0.588272        -0.409799
 H         0.085912        -1.848953         0.655446
 H        -0.417773        -0.246458         1.137842
 H         1.852834         0.231580        -1.872360
 H         1.478068         1.811604        -0.913659
 H         4.191581         0.403289        -2.287799
 H         5.309277        -0.404687        -1.191061
 H         3.282583        -1.364427         0.833056
 H         4.100130         0.755934         1.844170
 H         3.260770         2.285869         1.272594
