19
Iteration:  2029
 C         0.051155        -0.796803         0.576292
 C         1.444190        -0.161601         0.201153
 C         2.037620         0.560447        -1.064283
 C         3.410379         0.453685        -0.330820
 C         4.410424        -0.282542        -1.191054
 O         3.684547        -1.527412        -0.786376
 C         2.922099        -0.856366         0.229164
 C         3.050733         1.512276         0.703063
 O         1.755301         0.959324         1.216378
 H        -0.452768        -0.153147         1.321522
 H        -0.729832        -0.935306        -0.258917
 H         0.325276        -1.728046         1.182487
 H         2.064390        -0.111373        -1.994219
 H         1.647883         1.517076        -1.288190
 H         4.356299        -0.136025        -2.246016
 H         5.419918        -0.358937        -0.766579
 H         3.214097        -1.123030         1.227118
 H         3.604935         1.673396         1.752350
 H         2.753304         2.473709         0.272289
