19
Iteration:  3071charge 0 multiplicity 1
 C         0.163839        -0.690266         0.442150
 C         1.499758        -0.168627         0.171423
 C         1.885248         0.817490        -0.893814
 C         3.358696         0.583716        -0.296333
 C         4.258039        -0.040951        -1.307622
 O         3.343027        -1.317048        -1.263978
 C         2.872677        -0.846065         0.087793
 C         3.296013         1.072576         1.126642
 O         2.029038         0.540218         1.511191
 H        -0.305820        -0.865853        -0.527540
 H         0.207262        -1.682010         0.996776
 H        -0.331605        -0.069377         1.193394
 H         1.900552         0.359618        -1.913276
 H         1.501125         1.736650        -0.875324
 H         4.467162         0.297213        -2.326732
 H         5.101102        -0.231965        -0.712017
 H         3.140251        -1.589498         0.819523
 H         4.142120         0.657177         1.738367
 H         3.365919         2.259549         1.246814
