19
Iteration:  3195charge 0 multiplicity 1
 C         0.196650        -0.732634         0.418630
 C         1.503550        -0.032764         0.215387
 C         1.854131         1.019811        -0.752840
 C         3.310072         0.500057        -0.260733
 C         4.241062        -0.143746        -1.299005
 O         3.437625        -1.344786        -1.338181
 C         2.779726        -0.917256        -0.015104
 C         3.338912         1.114659         1.113238
 O         2.014949         0.485490         1.532302
 H         0.333074        -1.505603         1.286152
 H        -0.746308        -0.144134         0.544563
 H         0.082467        -1.492359        -0.512025
 H         1.642266         0.928488        -1.735801
 H         1.725094         2.013296        -0.411203
 H         4.300318         0.410189        -2.208484
 H         5.276538        -0.265103        -1.037787
 H         3.028374        -1.678412         0.748679
 H         4.203015         0.606131         1.709401
 H         3.378020         2.351677         1.034729
