19
Iteration:   250charge 0 multiplicity 1
 C         0.270681        -0.792848         0.770414
 C         1.489406        -0.262586         0.075725
 C         2.195904        -0.492658        -1.268151
 C         3.354566         0.328851        -0.568327
 C         4.619841        -0.379727        -0.358747
 O         3.958586        -1.260378         0.708808
 C         2.876777        -0.337014         0.757127
 C         2.598237         1.725440        -0.690270
 O         1.373992         1.265828         0.095044
 H        -0.661538        -0.923402         0.270530
 H         0.558311        -1.751551         1.271438
 H         0.104093        -0.020992         1.546692
 H         2.514733        -1.551553        -1.396182
 H         1.756998        -0.138480        -2.193998
 H         5.095907        -0.916919        -1.225562
 H         5.376089         0.223163         0.103602
 H         2.980779         0.299551         1.647492
 H         3.008124         2.587073        -0.104530
 H         2.233633         1.829398        -1.817010
