19
Iteration:  3376charge 0 multiplicity 1
 C         0.181805        -0.630097         0.505870
 C         1.556596        -0.121620         0.196739
 C         1.951266         0.854410        -0.771250
 C         3.411711         0.594059        -0.274555
 C         4.292207        -0.075791        -1.331383
 O         3.275043        -1.179530        -1.452694
 C         2.846012        -0.918768        -0.075146
 C         3.262865         1.053194         1.219205
 O         1.997991         0.372172         1.561591
 H        -0.625348        -0.062261         0.022113
 H         0.074301        -1.778124         0.284076
 H        -0.041518        -0.682763         1.532602
 H         1.758819         0.443046        -1.838746
 H         1.582779         1.821320        -0.546281
 H         4.469106         0.477480        -2.303307
 H         5.216849        -0.515342        -0.911398
 H         3.188525        -1.647222         0.661836
 H         4.003877         0.672045         1.857979
 H         3.128439         2.300020         1.417459
