19
Iteration:  1433charge 0 multiplicity 1
 C         0.201432        -0.694156         0.569561
 C         1.554960        -0.199957         0.226718
 C         1.949520         0.159062        -1.249790
 C         3.350539         0.471972        -0.413211
 C         4.476782        -0.373991        -0.896826
 O         3.753603        -1.543692        -0.421157
 C         2.946365        -0.731712         0.442851
 C         2.885921         1.695825         0.476681
 O         1.641681         1.067296         0.871331
 H         0.078207        -1.750084         0.613132
 H        -0.145107        -0.292997         1.502889
 H        -0.405532        -0.429501        -0.329041
 H         2.132658        -0.753840        -1.718572
 H         1.445052         0.891735        -1.944522
 H         4.647773        -0.452359        -2.017569
 H         5.478785        -0.218218        -0.412074
 H         3.111881        -0.759390         1.518167
 H         3.517818         2.014956         1.396949
 H         2.585589         2.628609        -0.114593
