19
Iteration:  4981
 C         0.122632        -0.704213         0.412221
 C         1.518280        -0.110562         0.301981
 C         2.011739         0.998478        -0.564178
 C         3.408562         0.581064        -0.167696
 C         4.215254        -0.041939        -1.411457
 O         3.201603        -1.085644        -1.581446
 C         2.795474        -0.912327        -0.165749
 C         3.421938         0.837745         1.282076
 O         2.027742         0.373339         1.513859
 H        -0.329569        -0.973072        -0.579490
 H         0.313424        -1.699392         0.933945
 H        -0.462137        -0.232330         1.245503
 H         1.809792         0.871927        -1.640731
 H         1.703701         1.980642        -0.265533
 H         4.325749         0.646632        -2.282836
 H         5.168452        -0.351896        -1.074503
 H         3.383874        -1.521575         0.597462
 H         4.236052         0.178548         1.774649
 H         3.402240         1.896605         1.674933
