19
Iteration:  2678
 C         0.178528        -0.655861         0.582320
 C         1.539968        -0.141379         0.167522
 C         1.958661         0.741105        -0.981123
 C         3.359168         0.584688        -0.375343
 C         4.305766        -0.222387        -1.183775
 O         3.453219        -1.446857        -1.079541
 C         2.971507        -0.777137         0.086187
 C         3.086454         1.296329         0.985435
 O         1.910686         0.566338         1.370107
 H        -0.394744        -0.166202         1.307512
 H        -0.364781        -0.588676        -0.404803
 H         0.181706        -1.702724         0.894536
 H         1.962638         0.183413        -2.046571
 H         1.486641         1.799225        -0.942830
 H         4.386502         0.023081        -2.287621
 H         5.310499        -0.345886        -0.685649
 H         3.387768        -1.382972         1.014344
 H         3.819417         1.136583         1.848759
 H         2.758077         2.399906         0.838242
