19
Iteration:   319
 C         0.267747        -0.811169         0.636603
 C         1.484030        -0.206002         0.141819
 C         2.133574        -0.539042        -1.181007
 C         3.263434         0.297640        -0.597635
 C         4.630689        -0.378915        -0.486442
 O         4.000743        -1.235007         0.615481
 C         2.877365        -0.251814         0.820843
 C         2.681058         1.655993        -0.566829
 O         1.387785         1.279470         0.167917
 H         0.463633        -1.733330         1.246345
 H        -0.212507        -0.070197         1.270168
 H        -0.407476        -1.115492        -0.164977
 H         2.191065        -1.609312        -1.241751
 H         1.609903        -0.177830        -2.071767
 H         4.950412        -1.016243        -1.279516
 H         5.465468         0.223112        -0.058262
 H         2.989920         0.315859         1.701721
 H         3.225139         2.366818         0.058681
 H         2.607916         2.104937        -1.624283
