19
Iteration:   901
 C         0.239216        -0.814183         0.618167
 C         1.495021        -0.195001         0.168639
 C         2.056848        -0.184766        -1.255096
 C         3.353417         0.470066        -0.506217
 C         4.522303        -0.444231        -0.644860
 O         3.826936        -1.529830         0.007701
 C         2.939730        -0.455275         0.652935
 C         2.766449         1.794360         0.012584
 O         1.555607         1.235543         0.510409
 H         0.048662        -0.531704         1.670047
 H        -0.604269        -0.300803         0.072786
 H         0.132275        -1.877385         0.501669
 H         2.168306        -1.260830        -1.483026
 H         1.475086         0.452276        -2.001447
 H         4.683934        -0.816860        -1.669149
 H         5.541292        -0.156426        -0.278034
 H         3.248917        -0.362092         1.677329
 H         3.290901         2.155320         0.946755
 H         2.575303         2.546525        -0.711774
