19
Iteration:  2779charge 0 multiplicity 1
 C         0.056680        -0.722946         0.496193
 C         1.533706        -0.177920         0.225239
 C         1.965649         0.752983        -0.961831
 C         3.371904         0.580273        -0.358796
 C         4.316190        -0.181812        -1.258995
 O         3.488877        -1.354058        -1.165357
 C         2.837833        -0.872676         0.065959
 C         3.237275         1.263095         0.993648
 O         1.920927         0.592413         1.523617
 H        -0.471732        -0.910138        -0.467260
 H         0.172218        -1.623019         1.094522
 H        -0.561217        -0.064768         1.115766
 H         1.884828         0.293563        -1.931371
 H         1.668590         1.823371        -0.990181
 H         4.358588         0.197511        -2.296254
 H         5.336981        -0.292671        -0.826627
 H         3.325051        -1.322302         1.019756
 H         4.117552         1.196567         1.738505
 H         2.937310         2.367544         0.955487
