19
Iteration:  2031
 C         0.046785        -0.790614         0.585915
 C         1.445340        -0.171967         0.180220
 C         2.050951         0.566769        -1.053320
 C         3.415370         0.468450        -0.326154
 C         4.405354        -0.300627        -1.187448
 O         3.678927        -1.519464        -0.784747
 C         2.921445        -0.830749         0.229423
 C         3.030506         1.523083         0.705386
 O         1.766012         0.927353         1.210991
 H        -0.464701        -0.104203         1.299593
 H        -0.687127        -0.965983        -0.211238
 H         0.331351        -1.659501         1.183255
 H         2.025590        -0.152128        -1.971973
 H         1.608593         1.509237        -1.375558
 H         4.397126        -0.126101        -2.267788
 H         5.398735        -0.401164        -0.797110
 H         3.244498        -1.199222         1.247611
 H         3.596317         1.689423         1.758042
 H         2.801589         2.489233         0.271477
