19
Iteration:  4644charge 0 multiplicity 1
 C         0.077181        -0.607067         0.449149
 C         1.509186        -0.142779         0.260321
 C         1.891753         1.081231        -0.605681
 C         3.351185         0.538335        -0.188296
 C         4.199943         0.040785        -1.391051
 O         3.368198        -1.163924        -1.607802
 C         2.779044        -0.914794        -0.212868
 C         3.405735         0.829576         1.294788
 O         2.111391         0.266491         1.594322
 H        -0.237321        -1.388055        -0.371589
 H         0.166373        -1.172893         1.473939
 H        -0.708480         0.209266         0.412494
 H         1.530249         1.082071        -1.601636
 H         1.789323         1.951462         0.014570
 H         4.296666         0.661525        -2.271400
 H         5.152823        -0.221916        -1.043465
 H         3.147300        -1.665806         0.575399
 H         4.218680         0.291321         1.744436
 H         3.558490         1.878070         1.555024
