19
Iteration:  4283charge 0 multiplicity 1
 C         0.102824        -0.726898         0.471821
 C         1.520893        -0.135181         0.259462
 C         1.921335         1.053414        -0.625145
 C         3.403461         0.552541        -0.188234
 C         4.234315         0.039769        -1.329487
 O         3.276991        -1.067297        -1.617488
 C         2.787984        -0.917077        -0.231109
 C         3.453283         0.757976         1.308632
 O         2.047834         0.376903         1.567134
 H        -0.157964        -1.492895        -0.287072
 H        -0.102116        -1.176072         1.425843
 H        -0.625918         0.025458         0.437899
 H         1.732387         0.909423        -1.809590
 H         1.610577         2.035270        -0.183143
 H         4.318333         0.700369        -2.192271
 H         5.165214        -0.397898        -1.028648
 H         3.203121        -1.792703         0.606838
 H         4.134959         0.082469         1.760105
 H         3.588967         1.837307         1.633208
