19
Iteration:   589
 C         0.217000        -0.881034         0.689693
 C         1.564354        -0.283684         0.195268
 C         2.116473        -0.384747        -1.226254
 C         3.375680         0.452695        -0.533037
 C         4.603218        -0.447553        -0.561369
 O         3.790109        -1.372309         0.337802
 C         2.961141        -0.324976         0.738032
 C         2.724531         1.770143        -0.338364
 O         1.414951         1.300908         0.257200
 H        -0.375094        -0.118635         1.213983
 H        -0.316097        -1.252233        -0.178687
 H         0.347503        -1.700294         1.397500
 H         2.436376        -1.385472        -1.462439
 H         1.537227         0.068413        -1.994558
 H         5.001134        -0.922542        -1.496629
 H         5.472034        -0.157377         0.079671
 H         3.209258         0.262033         1.617109
 H         3.196080         2.344376         0.502705
 H         2.612209         2.390652        -1.194750
