19
Iteration:   574charge 0 multiplicity 1
 C         0.268065        -0.921503         0.684907
 C         1.475298        -0.125882         0.212030
 C         2.078391        -0.371858        -1.170713
 C         3.272523         0.356208        -0.603901
 C         4.633426        -0.450524        -0.469809
 O         3.882984        -1.447891         0.325343
 C         2.943112        -0.230844         0.776728
 C         2.750305         1.773564        -0.294871
 O         1.439531         1.281600         0.156413
 H        -0.164125        -0.482245         1.595072
 H        -0.545014        -0.905903        -0.137477
 H         0.620119        -1.967902         0.819110
 H         2.152529        -1.323353        -1.700491
 H         1.526016         0.192658        -1.971262
 H         4.862387        -0.895845        -1.428950
 H         5.427931         0.123823         0.008454
 H         3.222673        -0.116700         1.856859
 H         3.329004         2.389427         0.332953
 H         2.508158         2.492134        -1.123282
