19
Iteration:  4310
 C         0.155364        -0.642729         0.553827
 C         1.496956        -0.116864         0.245796
 C         1.964811         1.041352        -0.716450
 C         3.350214         0.583794        -0.240014
 C         4.299391         0.103318        -1.402701
 O         3.319357        -1.114626        -1.554938
 C         2.758447        -0.883685        -0.242297
 C         3.371919         0.764066         1.344971
 O         2.016904         0.230844         1.553722
 H        -0.471029        -1.056729        -0.266122
 H         0.188883        -1.462863         1.415119
 H        -0.488456         0.267941         1.111946
 H         1.781061         0.720280        -1.625200
 H         1.764615         2.076240        -0.402621
 H         4.380813         0.635202        -2.399935
 H         5.263432        -0.346657        -1.018123
 H         3.026538        -1.606255         0.576639
 H         4.158800         0.094323         1.925137
 H         3.403017         1.801321         1.729700
