19
Iteration:  1845
 C         0.165783        -0.806264         0.529189
 C         1.484668        -0.182471         0.223137
 C         1.913025         0.470519        -1.105362
 C         3.355980         0.505644        -0.315916
 C         4.417822        -0.407460        -1.105236
 O         3.699473        -1.552786        -0.721800
 C         2.932238        -0.800701         0.346634
 C         3.042216         1.656917         0.613304
 O         1.719462         1.018575         1.130222
 H        -0.574967        -0.811870        -0.216216
 H         0.384972        -1.798159         0.903781
 H        -0.319366        -0.225747         1.316437
 H         1.977864        -0.291557        -1.961698
 H         1.388961         1.402118        -1.445466
 H         4.597014        -0.347705        -2.220937
 H         5.408115        -0.560129        -0.528772
 H         3.424695        -1.143704         1.330861
 H         3.583212         1.666765         1.504161
 H         2.842143         2.606074         0.120658
