19
Iteration:  2455
 C         0.226833        -0.754735         0.465985
 C         1.600647        -0.138726         0.268168
 C         1.880265         0.589338        -1.054603
 C         3.278921         0.621566        -0.400034
 C         4.285907        -0.244830        -1.132167
 O         3.428621        -1.410209        -1.030563
 C         2.909796        -0.809776         0.143358
 C         3.210418         1.284893         0.965952
 O         1.897606         0.794111         1.340556
 H        -0.024181        -1.589964        -0.179248
 H         0.062038        -1.061706         1.401664
 H        -0.448155         0.036721         0.366490
 H         1.867342        -0.149603        -1.848552
 H         1.426169         1.625747        -1.439782
 H         4.608540         0.160381        -2.049122
 H         5.119591        -0.393277        -0.466224
 H         3.333308        -1.353280         1.064478
 H         3.940470         0.782790         1.605383
 H         3.333236         2.408920         1.065180
