19
Iteration:  1063charge 0 multiplicity 1
 C         0.123746        -0.848103         0.578020
 C         1.453730        -0.248459         0.111632
 C         1.987827         0.029314        -1.324671
 C         3.322139         0.484455        -0.511944
 C         4.536285        -0.547084        -0.755363
 O         3.856331        -1.544427        -0.023837
 C         3.047371        -0.491534         0.600428
 C         2.796705         1.826312         0.107937
 O         1.601723         1.210409         0.734679
 H         0.444168        -1.472173         1.457482
 H        -0.517097        -0.016423         0.980164
 H        -0.474359        -1.481522        -0.143508
 H         2.002377        -0.890626        -1.989309
 H         1.694411         0.930436        -1.853493
 H         4.881086        -0.895699        -1.705851
 H         5.479752        -0.308632        -0.247414
 H         3.377901        -0.485116         1.648900
 H         3.383556         2.087407         0.936444
 H         2.343350         2.606704        -0.556350
