19
Iteration:   865charge 0 multiplicity 1
 C         0.219640        -0.862645         0.666542
 C         1.511074        -0.178450         0.117327
 C         2.035327        -0.052357        -1.349718
 C         3.306157         0.448914        -0.530461
 C         4.537561        -0.478522        -0.577588
 O         3.918071        -1.562961         0.156627
 C         2.879441        -0.509727         0.615879
 C         2.760345         1.781710        -0.075406
 O         1.559559         1.239545         0.516942
 H         0.624629        -1.722913         1.273407
 H        -0.216277        -0.083826         1.398823
 H        -0.544521        -1.228903        -0.065217
 H         1.893892        -0.990601        -1.856224
 H         1.478200         0.708787        -2.024286
 H         4.690633        -0.757631        -1.610604
 H         5.436432        -0.069556        -0.074902
 H         3.135852        -0.253853         1.650984
 H         3.438774         2.429020         0.669073
 H         2.584357         2.542566        -0.963692
