19
Iteration:   347charge 0 multiplicity 1
 C         0.109102        -0.787113         0.764603
 C         1.477668        -0.312914         0.107041
 C         2.226361        -0.480261        -1.283764
 C         3.313169         0.392949        -0.628648
 C         4.658902        -0.450491        -0.418441
 O         4.050822        -1.284392         0.613615
 C         2.850262        -0.286447         0.784653
 C         2.536249         1.782032        -0.615080
 O         1.504879         1.224939         0.201535
 H         0.220306        -1.068176         1.793124
 H        -0.630074         0.067997         0.671282
 H        -0.216211        -1.687558         0.226344
 H         2.342218        -1.559822        -1.525185
 H         1.672983        -0.001399        -2.091143
 H         5.045960        -1.150820        -1.246600
 H         5.408515         0.152256         0.069985
 H         2.990986         0.204147         1.809633
 H         2.919026         2.727259        -0.085719
 H         2.456488         2.168807        -1.610317
