19
Iteration:  2527charge 0 multiplicity 1
 C         0.167332        -0.684390         0.517519
 C         1.529669        -0.133034         0.253980
 C         1.856060         0.577008        -1.039131
 C         3.375346         0.579627        -0.331159
 C         4.369071        -0.185147        -1.211990
 O         3.500257        -1.413510        -1.066378
 C         2.935824        -0.827580         0.134874
 C         3.183892         1.226725         1.031617
 O         1.834603         0.787137         1.321840
 H         0.105251        -1.778793         0.741239
 H        -0.396760        -0.130141         1.422319
 H        -0.506477        -0.381606        -0.369611
 H         1.807623        -0.152587        -1.834655
 H         1.472480         1.487977        -1.302395
 H         4.250399        -0.082291        -2.321653
 H         5.444787        -0.199260        -0.915904
 H         3.493113        -1.153403         1.016934
 H         3.927721         0.642034         1.645623
 H         3.192347         2.312618         1.123644
