19
Iteration:  4068
 C         0.089113        -0.726911         0.443996
 C         1.546218        -0.152352         0.196883
 C         1.935982         1.060224        -0.563726
 C         3.432301         0.578325        -0.179613
 C         4.214212         0.009641        -1.434373
 O         3.231661        -1.055181        -1.526510
 C         2.801246        -0.830671        -0.142119
 C         3.418632         0.796484         1.328083
 O         2.039386         0.275842         1.494483
 H        -0.091501        -1.585887        -0.126362
 H         0.150365        -1.041224         1.503063
 H        -0.630631         0.096376         0.398962
 H         1.915129         0.814081        -1.736735
 H         1.753989         2.116947        -0.261990
 H         4.266671         0.712307        -2.334311
 H         5.211833        -0.353295        -1.259597
 H         3.286028        -1.729571         0.525581
 H         4.102050         0.043592         1.832827
 H         3.595073         1.756174         1.731098
