19
Iteration:  4990
 C         0.122673        -0.750311         0.433348
 C         1.514576        -0.146419         0.244602
 C         2.021769         1.028393        -0.574692
 C         3.461391         0.526215        -0.239894
 C         4.221211        -0.066436        -1.463273
 O         3.171160        -1.047586        -1.564698
 C         2.834265        -0.912375        -0.174666
 C         3.360079         0.915780         1.359353
 O         2.047490         0.370473         1.610564
 H        -0.314774        -0.939851        -0.604405
 H         0.321537        -1.700735         0.930876
 H        -0.672103        -0.005512         0.843872
 H         1.896664         0.906473        -1.554822
 H         1.684833         1.960868        -0.222578
 H         4.333361         0.571825        -2.361697
 H         5.215642        -0.583383        -1.279833
 H         3.196109        -1.640609         0.417607
 H         4.109566         0.358066         1.952231
 H         3.449028         1.946635         1.681682
