19
Iteration:  2735charge 0 multiplicity 1
 C         0.148332        -0.832346         0.510632
 C         1.469508        -0.101681         0.245070
 C         1.957290         0.781054        -0.935810
 C         3.302775         0.486529        -0.290769
 C         4.321260        -0.164355        -1.238331
 O         3.518443        -1.430021        -1.207795
 C         2.900334        -0.902277         0.105814
 C         3.237577         1.274468         0.964066
 O         1.845571         0.808914         1.438079
 H        -0.549415        -0.198689        -0.082662
 H         0.203983        -1.887191         0.193098
 H        -0.176206        -0.944499         1.557859
 H         1.915510         0.401005        -1.950860
 H         1.595563         1.821721        -0.838246
 H         4.373842         0.291732        -2.246525
 H         5.324094        -0.399142        -0.843030
 H         3.247214        -1.647490         0.950116
 H         3.963722         0.770917         1.739348
 H         3.384088         2.413384         1.066978
