19
Iteration:  4544charge 0 multiplicity 1
 C         0.175041        -0.742293         0.411015
 C         1.496434        -0.085603         0.312651
 C         1.934653         1.020372        -0.681105
 C         3.397701         0.560543        -0.179843
 C         4.261329        -0.038175        -1.337469
 O         3.170301        -1.049264        -1.584350
 C         2.745198        -0.880345        -0.249833
 C         3.483295         0.836436         1.294478
 O         2.070092         0.337865         1.633482
 H        -0.257787        -0.709511        -0.699185
 H         0.337652        -1.825920         0.740592
 H        -0.437337        -0.202026         1.158074
 H         1.654632         0.800935        -1.651832
 H         1.625358         2.047097        -0.417598
 H         4.507062         0.545882        -2.187613
 H         5.129449        -0.475954        -0.919452
 H         3.147519        -1.799322         0.432716
 H         4.174117         0.252749         1.887969
 H         3.498275         1.877422         1.584793
