19
Iteration:  4204
 C         0.114209        -0.691802         0.462526
 C         1.541500        -0.097335         0.275564
 C         1.897780         1.064795        -0.631819
 C         3.353494         0.466302        -0.173984
 C         4.221467         0.074972        -1.353331
 O         3.331332        -1.139438        -1.560928
 C         2.753841        -0.912352        -0.210044
 C         3.465871         0.831702         1.288803
 O         2.057837         0.314182         1.540528
 H        -0.327000        -0.899201        -0.480931
 H        -0.116310        -1.536528         1.004011
 H        -0.508868         0.028618         0.873879
 H         1.699825         1.086430        -1.688399
 H         1.535249         2.134440        -0.278641
 H         4.237538         0.668360        -2.215051
 H         5.234554        -0.247006        -1.138185
 H         3.217315        -1.787769         0.568431
 H         4.202626         0.206088         1.757410
 H         3.576092         1.886546         1.583150
