19
Iteration:  3674charge 0 multiplicity 1
 C         0.023252        -0.640790         0.419265
 C         1.525689        -0.145062         0.318954
 C         1.961037         0.922972        -0.671315
 C         3.393799         0.514948        -0.211758
 C         4.287973         0.062446        -1.425481
 O         3.234548        -1.051164        -1.601116
 C         2.862817        -0.947261        -0.123761
 C         3.386100         0.866291         1.271691
 O         2.067860         0.337774         1.652052
 H        -0.782321         0.001287        -0.026079
 H         0.191707        -1.754440        -0.134493
 H        -0.324541        -0.832427         1.548388
 H         1.791907         0.763705        -1.674827
 H         1.670927         1.914468        -0.338460
 H         4.391191         0.665094        -2.358936
 H         5.236983        -0.305819        -0.981792
 H         3.186642        -1.749390         0.546592
 H         4.252884         0.378306         1.797287
 H         3.410525         1.907736         1.430366
