19
Iteration:  2123
 C         0.250767        -0.745452         0.520221
 C         1.586539        -0.188378         0.137529
 C         2.022684         0.570658        -1.127547
 C         3.298820         0.589927        -0.326167
 C         4.270577        -0.302643        -1.155362
 O         3.571575        -1.535636        -0.835113
 C         2.873211        -0.845393         0.267196
 C         3.087839         1.453543         0.885806
 O         1.759153         0.877363         1.196421
 H        -0.366040        -1.072078        -0.262768
 H         0.423859        -1.635078         1.130897
 H        -0.240658         0.025771         1.094564
 H         1.986737        -0.003573        -2.055805
 H         1.470798         1.597951        -1.177229
 H         4.350313        -0.019015        -2.249726
 H         5.290554        -0.258512        -0.734261
 H         3.365774        -1.169803         1.267379
 H         3.772867         1.278712         1.699861
 H         3.120716         2.576109         0.647988
