19
Iteration:  1289charge 0 multiplicity 1
 C         0.136505        -0.782875         0.562853
 C         1.453470        -0.194670         0.168169
 C         1.914003         0.075493        -1.216896
 C         3.368763         0.495396        -0.482863
 C         4.528775        -0.395574        -0.818441
 O         3.764773        -1.507912        -0.283410
 C         2.971919        -0.654563         0.546497
 C         2.917329         1.670749         0.309537
 O         1.670575         1.162416         0.762037
 H         0.019293        -0.825255         1.637402
 H        -0.710566        -0.291123         0.077466
 H         0.034477        -1.832881         0.376732
 H         1.979836        -0.906136        -1.811202
 H         1.468650         0.854302        -1.778795
 H         4.980300        -0.319646        -1.837484
 H         5.321557        -0.102199        -0.140944
 H         3.285031        -0.697342         1.586938
 H         3.582696         1.734905         1.246738
 H         2.740705         2.534012        -0.275503
