19
Iteration:   756charge 0 multiplicity 1
 C         0.233517        -0.842608         0.630592
 C         1.461677        -0.153551         0.136800
 C         1.983202        -0.373320        -1.262714
 C         3.288036         0.428785        -0.597671
 C         4.600792        -0.461521        -0.541641
 O         3.918626        -1.448429         0.189831
 C         2.892505        -0.381444         0.628145
 C         2.807210         1.752247        -0.130864
 O         1.498321         1.328820         0.475012
 H        -0.432193        -0.183600         1.232660
 H        -0.463834        -1.121558        -0.169078
 H         0.575185        -1.726900         1.227455
 H         2.321266        -1.353354        -1.697248
 H         1.435292         0.174785        -2.118991
 H         4.874632        -0.873980        -1.523444
 H         5.436737         0.088215         0.015783
 H         3.135908        -0.218349         1.670069
 H         3.596563         2.074005         0.639347
 H         2.798391         2.627607        -0.693882
