19
Iteration:  2655
 C         0.040395        -0.761670         0.500190
 C         1.433909        -0.141308         0.167408
 C         1.892957         0.772104        -0.961763
 C         3.299946         0.498842        -0.324691
 C         4.416772        -0.190516        -1.272741
 O         3.620509        -1.427053        -1.088089
 C         2.841579        -0.925938         0.111232
 C         3.251284         1.339087         0.994874
 O         1.922236         0.753933         1.454546
 H        -0.281588        -0.391746         1.408461
 H        -0.740066        -0.551683        -0.241625
 H         0.125618        -1.814152         0.710991
 H         1.646319         0.075611        -1.930322
 H         1.497688         1.874076        -0.971121
 H         4.318925         0.013000        -2.378471
 H         5.508652        -0.355199        -0.976531
 H         3.177572        -1.592438         1.009248
 H         4.031639         1.165333         1.756290
 H         3.069958         2.438211         0.739334
