19
Iteration:  1196charge 0 multiplicity 1
 C         0.291135        -0.818192         0.559623
 C         1.534440        -0.187935         0.214487
 C         1.965383        -0.000301        -1.228979
 C         3.343136         0.466631        -0.491476
 C         4.503781        -0.415264        -0.827538
 O         3.732355        -1.566756        -0.179874
 C         2.954911        -0.544577         0.513101
 C         2.931228         1.719737         0.263833
 O         1.508111         1.231068         0.724955
 H        -0.096094        -1.088532        -0.451350
 H         0.366379        -1.679448         1.240440
 H        -0.549268        -0.152188         0.969076
 H         1.966176        -0.970886        -1.768092
 H         1.380797         0.769248        -1.734864
 H         4.935645        -0.653834        -1.787737
 H         5.390041        -0.405251        -0.071409
 H         3.374557        -0.313613         1.538299
 H         3.466582         1.757764         1.187082
 H         2.781143         2.656502        -0.310818
