19
Iteration:  3614
 C         0.135767        -0.755362         0.472559
 C         1.524413        -0.114650         0.262109
 C         1.985168         1.031844        -0.668877
 C         3.426763         0.622083        -0.216317
 C         4.261966        -0.074871        -1.342693
 O         3.219233        -1.085663        -1.497575
 C         2.798856        -0.784407        -0.218306
 C         3.381172         0.838148         1.283863
 O         2.016135         0.279858         1.554047
 H        -0.386923        -0.334522         1.348552
 H        -0.493486        -0.689848        -0.329051
 H         0.218853        -1.754953         0.706901
 H         1.783130         0.596681        -1.769673
 H         1.573317         2.133500        -0.667598
 H         4.329476         0.449703        -2.345807
 H         5.297612        -0.433553        -1.108377
 H         3.252777        -1.498425         0.526558
 H         4.339740         0.417628         1.920248
 H         3.300473         2.029195         1.501070
