19
Iteration:  1951
 C         0.274779        -0.759585         0.601283
 C         1.492427        -0.108688         0.122310
 C         1.957098         0.559290        -1.067282
 C         3.342596         0.460121        -0.300682
 C         4.457376        -0.311581        -1.083050
 O         3.604613        -1.603628        -0.741489
 C         2.874508        -0.881836         0.242680
 C         2.947997         1.596866         0.654728
 O         1.806877         0.955938         1.142014
 H         0.620923        -1.646223         1.155215
 H        -0.522012        -0.149225         1.145914
 H        -0.287750        -1.156497        -0.342787
 H         1.908186        -0.191010        -1.798256
 H         1.582025         1.586744        -1.223323
 H         4.450811        -0.246857        -2.143454
 H         5.454427        -0.459225        -0.659511
 H         3.054829        -1.420634         1.146637
 H         3.558264         1.980761         1.633840
 H         2.593477         2.588652         0.201716
