19
Iteration:  4788
 C         0.040808        -0.585544         0.497670
 C         1.503135        -0.216580         0.291268
 C         1.971766         0.931640        -0.581221
 C         3.371137         0.455158        -0.212309
 C         4.275148         0.079633        -1.334342
 O         3.325837        -1.049365        -1.695123
 C         2.797720        -0.925033        -0.188121
 C         3.365692         0.914583         1.296808
 O         2.090177         0.299208         1.596413
 H        -0.407948        -0.510988        -0.555598
 H        -0.246595        -1.689207         0.937475
 H        -0.357241         0.277173         1.283446
 H         1.762689         0.565584        -1.702071
 H         1.602462         1.913861        -0.267530
 H         4.261982         0.481930        -2.386083
 H         5.291768        -0.453208        -1.107619
 H         3.296286        -1.718976         0.298014
 H         4.116001         0.471593         1.893860
 H         3.276660         1.992309         1.499755
