19
Iteration:   893
 C         0.209663        -0.799015         0.644208
 C         1.510737        -0.175035         0.153280
 C         2.153932        -0.155691        -1.263837
 C         3.341329         0.477263        -0.547537
 C         4.575902        -0.486494        -0.675694
 O         3.793971        -1.472902         0.063915
 C         2.913411        -0.493752         0.595223
 C         2.744265         1.757220         0.004512
 O         1.507567         1.230033         0.567949
 H         0.404861        -0.795596         1.714178
 H        -0.663870        -0.256130         0.451155
 H         0.047624        -1.819015         0.267550
 H         2.131903        -1.230399        -1.602801
 H         1.673743         0.389282        -2.004976
 H         4.726601        -0.808562        -1.742312
 H         5.518402        -0.263354        -0.149164
 H         3.194760        -0.305082         1.661705
 H         3.383277         2.185077         0.668207
 H         2.520271         2.489396        -0.723488
