19
Iteration:  1054charge 0 multiplicity 1
 C         0.147165        -0.855712         0.634784
 C         1.516789        -0.225981         0.142669
 C         2.038958         0.002339        -1.301739
 C         3.365557         0.535038        -0.581932
 C         4.567206        -0.547491        -0.764847
 O         3.800389        -1.514400        -0.047404
 C         2.924484        -0.495801         0.612378
 C         2.771144         1.767871         0.158645
 O         1.608669         1.172688         0.700333
 H         0.341845        -1.710396         1.300260
 H        -0.358360        -0.032729         1.116952
 H        -0.444317        -1.201764        -0.275192
 H         2.216280        -0.879819        -2.044087
 H         1.563676         0.777934        -1.857570
 H         4.811680        -1.056313        -1.681584
 H         5.431735        -0.177599        -0.249323
 H         3.127710        -0.182299         1.601526
 H         3.406545         2.342833         0.974307
 H         2.539425         2.610228        -0.558101
