19
Iteration:  1797charge 0 multiplicity 1
 C         0.153318        -0.874178         0.586615
 C         1.476488        -0.156015         0.148157
 C         1.904039         0.414281        -1.136037
 C         3.357270         0.562945        -0.438841
 C         4.457763        -0.367369        -1.004182
 O         3.690044        -1.561222        -0.665389
 C         2.882597        -0.757178         0.359795
 C         3.047859         1.582430         0.634858
 O         1.749987         1.074771         1.065879
 H        -0.752266        -0.236093         0.806560
 H        -0.066423        -1.621116        -0.201219
 H         0.275693        -1.435890         1.532050
 H         1.783139        -0.355951        -1.877399
 H         1.486301         1.389402        -1.445110
 H         4.608398        -0.456724        -2.067943
 H         5.373380        -0.235474        -0.419849
 H         3.285871        -0.994967         1.324960
 H         3.836109         1.496979         1.451115
 H         2.933624         2.560403         0.247198
