19
Iteration:   604charge 0 multiplicity 1
 C         0.262432        -0.778368         0.668698
 C         1.510205        -0.224292         0.128319
 C         2.199133        -0.380171        -1.260545
 C         3.297541         0.430798        -0.558045
 C         4.522143        -0.488694        -0.534477
 O         3.936240        -1.416763         0.351611
 C         2.932201        -0.367103         0.739207
 C         2.644357         1.823736        -0.304171
 O         1.444639         1.257079         0.328444
 H        -0.481466         0.047677         0.667569
 H        -0.170864        -1.540510         0.031023
 H         0.356399        -1.211150         1.688959
 H         2.638759        -1.447902        -1.352155
 H         1.650913         0.107016        -2.142261
 H         4.748819        -0.966750        -1.491585
 H         5.446595         0.026806        -0.172433
 H         2.970064        -0.246027         1.819615
 H         3.187220         2.532183         0.411324
 H         2.299620         2.257811        -1.313540
