19
Iteration:  3445charge 0 multiplicity 1
 C         0.098909        -0.685888         0.505683
 C         1.489484        -0.173027         0.233851
 C         2.012772         0.958782        -0.764907
 C         3.421598         0.533679        -0.203405
 C         4.244388         0.058956        -1.379200
 O         3.325035        -1.270385        -1.443181
 C         2.845530        -0.872405        -0.092196
 C         3.301506         0.962121         1.221805
 O         2.025200         0.406340         1.526568
 H        -0.201055        -1.352402        -0.238404
 H         0.073097        -1.148390         1.415487
 H        -0.648166         0.108997         0.595311
 H         1.668576         0.812997        -1.858929
 H         1.659870         2.004595        -0.364174
 H         4.184120         0.640332        -2.314294
 H         5.291175        -0.351412        -1.201106
 H         3.187560        -1.659488         0.590789
 H         4.068236         0.415641         1.839099
 H         3.298852         2.137421         1.496051
