19
Iteration:  4813
 C         0.160443        -0.669999         0.462626
 C         1.530641        -0.109969         0.244729
 C         1.959810         1.008253        -0.694497
 C         3.416261         0.467287        -0.170441
 C         4.246055         0.041182        -1.318953
 O         3.233618        -1.004682        -1.571359
 C         2.773804        -0.927116        -0.219590
 C         3.449014         0.879011         1.236798
 O         1.999714         0.261724         1.650620
 H        -0.199381        -1.086911        -0.505109
 H         0.208564        -1.529132         1.207617
 H        -0.496735         0.173351         0.945005
 H         1.703894         0.794046        -1.649895
 H         1.649782         1.972793        -0.378390
 H         4.258075         0.562103        -2.245808
 H         5.123621        -0.478304        -1.163733
 H         3.102781        -1.919847         0.327920
 H         4.271588         0.356405         1.778327
 H         3.363875         1.956729         1.482507
