19
Iteration:  2494charge 0 multiplicity 1
 C         0.028600        -0.767912         0.541956
 C         1.450782        -0.188861         0.242279
 C         2.004185         0.784501        -0.932257
 C         3.383599         0.503101        -0.276204
 C         4.329430        -0.198045        -1.158176
 O         3.582956        -1.469711        -1.081734
 C         2.862996        -0.964350         0.107054
 C         3.118885         1.449111         0.813649
 O         1.956071         0.717686         1.363414
 H        -0.034616        -1.870206         0.350149
 H        -0.168591        -0.420466         1.730797
 H        -0.661925        -0.318208        -0.295909
 H         1.867005         0.451911        -1.966289
 H         1.809260         1.782414        -0.910105
 H         4.210124        -0.019096        -2.299272
 H         5.433579        -0.420166        -0.960998
 H         3.111763        -1.532123         0.993664
 H         3.798702         1.624017         1.716996
 H         3.028954         2.514356         0.637794
