19
Iteration:  2247charge 0 multiplicity 1
 C         0.108798        -0.794115         0.465039
 C         1.521467        -0.187713         0.199930
 C         1.947786         0.694119        -0.992170
 C         3.331907         0.476227        -0.282152
 C         4.356818        -0.210923        -1.152498
 O         3.582096        -1.482781        -0.987992
 C         2.846257        -0.934687         0.220709
 C         3.185215         1.430557         0.801101
 O         1.867719         0.881743         1.313418
 H        -0.126755        -0.657426         1.582082
 H        -0.697545        -0.351292        -0.110273
 H         0.160745        -1.887705         0.273426
 H         1.763577         0.175983        -1.979952
 H         1.497020         1.668207        -1.070774
 H         4.365378         0.034928        -2.196036
 H         5.427124        -0.276139        -0.707316
 H         3.107145        -1.496199         1.211210
 H         3.890796         1.321097         1.609742
 H         2.995641         2.581172         0.623842
