19
Iteration:  2624
 C         0.163637        -0.726391         0.436787
 C         1.552632        -0.172500         0.289648
 C         1.873457         0.646955        -0.890881
 C         3.291996         0.507693        -0.354711
 C         4.310356        -0.145034        -1.193048
 O         3.505936        -1.383241        -1.120165
 C         2.888299        -0.910158         0.173777
 C         3.289667         1.245011         0.999129
 O         1.863491         0.822016         1.284223
 H        -0.234636        -0.527955         1.445567
 H        -0.589819        -0.178945        -0.270972
 H         0.072996        -1.827520         0.205336
 H         1.705842         0.020809        -1.824938
 H         1.362807         1.617521        -1.026582
 H         4.378833         0.163867        -2.264254
 H         5.342601        -0.217469        -0.824201
 H         3.390935        -1.545433         1.072105
 H         4.044970         0.885710         1.827696
 H         3.329127         2.422387         1.065588
