19
Iteration:   571
 C         0.278282        -0.918574         0.685966
 C         1.475016        -0.103581         0.192363
 C         2.068478        -0.366583        -1.164368
 C         3.282308         0.365287        -0.603353
 C         4.601561        -0.460427        -0.466472
 O         3.913102        -1.446442         0.333374
 C         2.930589        -0.264852         0.784783
 C         2.744459         1.758014        -0.310413
 O         1.429277         1.297726         0.156165
 H        -0.111270        -0.590521         1.689562
 H        -0.477291        -0.829876        -0.063702
 H         0.631142        -1.973103         0.686465
 H         2.122454        -1.372324        -1.703242
 H         1.515156         0.209342        -1.979170
 H         4.938829        -0.917424        -1.397318
 H         5.362751         0.175989         0.017176
 H         3.227978        -0.126864         1.817403
 H         3.341089         2.392111         0.420085
 H         2.555261         2.496641        -1.170772
