19
Iteration:  4040
 C         0.125495        -0.644863         0.493192
 C         1.529089        -0.138940         0.309918
 C         1.928458         1.039415        -0.626453
 C         3.367791         0.420566        -0.182134
 C         4.324770         0.057359        -1.305980
 O         3.275356        -1.053123        -1.682079
 C         2.740861        -0.947229        -0.265413
 C         3.301040         0.879269         1.259505
 O         2.109179         0.259293         1.639248
 H        -0.060463        -1.532895        -0.266498
 H         0.054213        -1.097452         1.490927
 H        -0.622674         0.175682         0.452689
 H         1.666312         0.910220        -1.612588
 H         1.805537         2.205969        -0.496117
 H         4.483190         0.857496        -2.005890
 H         5.342616        -0.423952        -1.058696
 H         3.035365        -1.749301         0.307292
 H         4.100047         0.506248         1.898092
 H         3.385762         2.031639         1.335590
