19
Iteration:   379
 C         0.278686        -0.783218         0.687708
 C         1.516426        -0.173612         0.182116
 C         2.124473        -0.600615        -1.180664
 C         3.279242         0.339808        -0.579205
 C         4.557180        -0.352083        -0.426541
 O         3.952493        -1.333437         0.473547
 C         2.948574        -0.253511         0.795186
 C         2.663269         1.728425        -0.416657
 O         1.370538         1.273221         0.037706
 H        -0.091428        -0.269435         1.570957
 H        -0.480597        -0.828384        -0.150241
 H         0.556145        -1.841803         0.893651
 H         2.362134        -1.681073        -1.185435
 H         1.528590        -0.240504        -2.029387
 H         5.067652        -0.832339        -1.335208
 H         5.360776         0.207069         0.107830
 H         3.327669         0.266250         1.738665
 H         3.210281         2.324951         0.429932
 H         2.725055         2.194780        -1.394918
