19
Iteration:  4736
 C         0.079877        -0.707378         0.457426
 C         1.476307        -0.108136         0.224866
 C         1.946815         1.117004        -0.650666
 C         3.347245         0.574745        -0.247316
 C         4.210903         0.042431        -1.374013
 O         3.344708        -1.151764        -1.530675
 C         2.748865        -0.868619        -0.227444
 C         3.465203         0.819483         1.282666
 O         2.083636         0.261578         1.663365
 H        -0.443029        -0.781692        -0.487531
 H         0.337588        -1.656677         0.961749
 H        -0.495423         0.043287         1.068026
 H         1.890124         0.833342        -1.688589
 H         1.636836         2.060437        -0.327243
 H         4.198878         0.560257        -2.341276
 H         5.152403        -0.354056        -1.275143
 H         3.015297        -1.842873         0.396126
 H         4.190071         0.227964         1.894372
 H         3.515692         1.892843         1.645361
