19
Iteration:   745charge 0 multiplicity 1
 C         0.226887        -0.855340         0.674153
 C         1.484201        -0.173581         0.152060
 C         2.071234        -0.310865        -1.307898
 C         3.270567         0.385748        -0.605650
 C         4.552137        -0.401363        -0.576262
 O         3.831018        -1.459274         0.220415
 C         2.939987        -0.412928         0.616201
 C         2.808741         1.746091        -0.090602
 O         1.512712         1.363234         0.425442
 H        -0.097894        -0.541725         1.688732
 H        -0.497297        -0.891804        -0.150973
 H         0.494916        -1.941482         0.730530
 H         2.367647        -1.399943        -1.231779
 H         1.447453         0.018630        -2.204395
 H         4.994571        -0.811832        -1.500372
 H         5.436112        -0.003086         0.027921
 H         3.152862         0.110294         1.550498
 H         3.387434         2.016220         0.857237
 H         2.719858         2.448170        -0.875676
