19
Iteration:  3523charge 0 multiplicity 1
 C         0.167920        -0.719761         0.486712
 C         1.473159        -0.125030         0.212022
 C         1.905282         1.026428        -0.708686
 C         3.374707         0.578194        -0.232819
 C         4.272351         0.047708        -1.343165
 O         3.288183        -1.210791        -1.429447
 C         2.771776        -0.893182        -0.123823
 C         3.404535         0.883886         1.253829
 O         2.062139         0.361244         1.471538
 H         0.278209        -1.765302         0.816995
 H        -0.351507        -0.197286         1.201151
 H        -0.451870        -0.752180        -0.443024
 H         1.702942         0.731585        -1.721155
 H         1.587105         2.127993        -0.374149
 H         4.326090         0.542586        -2.313982
 H         5.318906        -0.263403        -1.078136
 H         3.134956        -1.573675         0.674342
 H         4.169462         0.309800         1.909880
 H         3.396362         2.027089         1.676025
