19
Iteration:  4632
 C         0.062500        -0.626477         0.501157
 C         1.490230        -0.140558         0.242579
 C         1.848713         1.057780        -0.548410
 C         3.377068         0.519665        -0.262633
 C         4.254580         0.043263        -1.391088
 O         3.403029        -1.143002        -1.551440
 C         2.764149        -0.866997        -0.216082
 C         3.443118         0.762373         1.279908
 O         2.107118         0.306665         1.563740
 H        -0.305933        -1.151753        -0.492127
 H        -0.262540        -1.272715         1.404431
 H        -0.495985         0.310982         0.646282
 H         1.790768         0.970912        -1.557438
 H         1.281319         1.997267        -0.314785
 H         4.100417         0.649788        -2.252313
 H         5.260585        -0.156302        -1.244749
 H         3.159094        -1.636061         0.435930
 H         4.132507         0.109739         1.787224
 H         3.455054         1.741858         1.677183
