19
Iteration:  3571
 C         0.016132        -0.629893         0.455753
 C         1.483309        -0.223353         0.297330
 C         1.928474         0.916242        -0.571255
 C         3.397473         0.439131        -0.181120
 C         4.262466         0.073915        -1.353968
 O         3.353539        -1.095162        -1.539005
 C         2.825295        -0.977511        -0.225572
 C         3.363167         0.972665         1.151317
 O         2.099565         0.361288         1.585076
 H        -0.315506        -0.694625         1.520646
 H        -0.634498         0.168602         0.095489
 H        -0.202233        -1.485412        -0.099040
 H         1.891312         0.666492        -1.706756
 H         1.574384         1.899802        -0.228573
 H         4.402400         0.852603        -2.184524
 H         5.275435        -0.249649        -1.009449
 H         3.053221        -1.813503         0.471989
 H         4.167020         0.601396         1.943132
 H         3.380726         2.110890         1.143272
