19
Iteration:  2789
 C         0.121540        -0.730380         0.460006
 C         1.438446        -0.089800         0.314892
 C         1.956146         0.755494        -0.865522
 C         3.316602         0.511652        -0.332729
 C         4.320669        -0.129571        -1.246823
 O         3.541895        -1.376368        -1.208247
 C         2.853849        -0.961052        -0.004076
 C         3.223357         1.274828         0.973639
 O         1.957163         0.655701         1.506960
 H        -0.300524        -1.135560        -0.472443
 H         0.029072        -1.486628         1.237306
 H        -0.480392         0.145189         0.758234
 H         1.746521         0.147161        -1.835969
 H         1.440976         1.812966        -0.914808
 H         4.548294         0.226374        -2.292898
 H         5.303836        -0.386667        -0.736624
 H         3.191507        -1.664484         0.883305
 H         4.026802         1.134083         1.774631
 H         2.901390         2.339851         0.789417
