19
Iteration:   335
 C         0.143833        -0.809480         0.733194
 C         1.494105        -0.315849         0.091796
 C         2.131763        -0.507655        -1.292665
 C         3.329828         0.371886        -0.545022
 C         4.568974        -0.407715        -0.408525
 O         4.027456        -1.228305         0.645022
 C         2.917738        -0.331109         0.758062
 C         2.628460         1.711329        -0.631072
 O         1.499236         1.296878         0.197355
 H         0.362080        -1.374785         1.669894
 H        -0.566632         0.032364         0.977224
 H        -0.448169        -1.440866         0.012647
 H         2.692184        -1.456836        -1.525147
 H         1.696201        -0.057758        -2.209487
 H         4.897266        -0.937896        -1.387318
 H         5.488504         0.136813        -0.114434
 H         2.805235         0.189811         1.795952
 H         3.182780         2.610621        -0.081488
 H         2.048963         1.862937        -1.503871
