19
Iteration:  1206
 C         0.245705        -0.821198         0.530027
 C         1.546415        -0.144096         0.246531
 C         1.997566         0.058852        -1.194379
 C         3.312543         0.511959        -0.537888
 C         4.463013        -0.456494        -0.797754
 O         3.746460        -1.596574        -0.192697
 C         2.947757        -0.615873         0.594861
 C         2.821321         1.737090         0.267339
 O         1.614116         1.182903         0.677757
 H         0.006085        -1.489461        -0.335231
 H         0.372789        -1.458092         1.420346
 H        -0.466880         0.067085         0.676282
 H         2.228651        -0.862082        -1.823077
 H         1.440239         0.809127        -1.738814
 H         4.668622        -0.585678        -1.886385
 H         5.477346        -0.114634        -0.268902
 H         3.520195        -0.489401         1.565607
 H         3.434982         1.921861         1.128548
 H         2.687794         2.761391        -0.234376
