19
Iteration:   400
 C         0.179689        -0.950762         0.787024
 C         1.453465        -0.298838         0.184839
 C         2.137742        -0.499415        -1.150085
 C         3.358733         0.448644        -0.609812
 C         4.600619        -0.394152        -0.509106
 O         3.923572        -1.291276         0.497097
 C         2.868647        -0.313552         0.803499
 C         2.767454         1.765790        -0.457747
 O         1.406003         1.367071         0.010374
 H        -0.507881        -0.118841         1.069266
 H        -0.253255        -1.617531        -0.029380
 H         0.528125        -1.644270         1.599301
 H         2.484639        -1.562381        -1.246445
 H         1.601139        -0.094693        -2.031573
 H         5.089398        -0.952959        -1.395206
 H         5.460379        -0.005282         0.109323
 H         2.991247         0.085952         1.879573
 H         3.514405         2.377238         0.302483
 H         2.572046         2.430719        -1.392627
