19
Iteration:  2970
 C         0.142466        -0.716534         0.544757
 C         1.508241        -0.121994         0.261553
 C         1.861089         0.873594        -0.875355
 C         3.283559         0.523575        -0.304824
 C         4.293776        -0.121143        -1.206353
 O         3.537928        -1.372666        -1.358205
 C         2.854714        -0.976980        -0.023102
 C         3.292546         1.160519         1.096767
 O         1.940295         0.641377         1.458809
 H        -0.422679        -0.016253         1.150250
 H        -0.343007        -0.749267        -0.474108
 H         0.108291        -1.622298         1.101045
 H         1.734280         0.443805        -1.918708
 H         1.484331         1.760598        -0.738405
 H         4.486808         0.242400        -2.220075
 H         5.219234        -0.295615        -0.711655
 H         3.172768        -1.466868         0.891090
 H         4.063750         0.806635         1.818227
 H         3.165529         2.318541         1.124761
