19
Iteration:  3121
 C         0.039899        -0.691792         0.561459
 C         1.452242        -0.145715         0.229772
 C         1.946880         0.873250        -0.845437
 C         3.353621         0.459998        -0.258511
 C         4.348504        -0.133404        -1.290779
 O         3.512843        -1.251519        -1.439190
 C         2.811923        -1.012924        -0.011979
 C         3.269135         1.172843         1.107506
 O         1.962602         0.568606         1.547355
 H        -0.029733        -1.740190         0.234670
 H        -0.096686        -0.554328         1.643750
 H        -0.804742        -0.040517         0.202113
 H         1.656458         0.643427        -1.919744
 H         1.624985         1.976674        -0.577037
 H         4.411872         0.395309        -2.276668
 H         5.424102        -0.340656        -0.904585
 H         3.384621        -1.632708         0.711879
 H         4.142288         0.921008         1.693582
 H         3.169287         2.202822         1.111278
