19
Iteration:  3657charge 0 multiplicity 1
 C         0.151582        -0.766394         0.419709
 C         1.511320        -0.145554         0.306364
 C         1.936885         1.030558        -0.554808
 C         3.379424         0.452454        -0.170229
 C         4.199990        -0.006861        -1.338579
 O         3.343503        -1.106545        -1.608123
 C         2.722492        -0.910038        -0.230633
 C         3.482509         0.884727         1.247078
 O         2.018399         0.434484         1.572441
 H        -0.522089         0.122574         0.357358
 H         0.051875        -1.475749        -0.243613
 H        -0.100023        -0.994008         1.427485
 H         1.623321         0.812821        -1.662624
 H         1.539335         2.097905        -0.367278
 H         4.182965         0.729516        -2.136218
 H         5.230010        -0.370301        -1.274780
 H         3.140992        -1.756940         0.341176
 H         4.072992         0.298790         1.960505
 H         3.535014         1.995773         1.573777
