19
Iteration:  4661
 C         0.123441        -0.688957         0.458821
 C         1.544381        -0.085416         0.284969
 C         1.997499         1.083736        -0.560318
 C         3.395311         0.496857        -0.255876
 C         4.230189         0.023441        -1.360934
 O         3.224994        -1.054707        -1.553204
 C         2.782521        -0.939517        -0.213299
 C         3.422513         0.893868         1.205665
 O         2.029228         0.200489         1.621419
 H        -0.036347        -1.391253        -0.285975
 H        -0.052737        -1.062315         1.390400
 H        -0.553811         0.113207         0.319474
 H         1.962150         0.810769        -1.667285
 H         1.641144         2.140526        -0.273222
 H         4.329897         0.639748        -2.279293
 H         5.310411        -0.378649        -1.108683
 H         3.113286        -1.808405         0.367290
 H         4.220793         0.419460         1.856725
 H         3.198369         1.947856         1.435598
