19
Iteration:  4397charge 0 multiplicity 1
 C         0.162141        -0.783744         0.456510
 C         1.480974        -0.104283         0.231588
 C         2.020071         1.108213        -0.638427
 C         3.399334         0.549775        -0.171354
 C         4.229910         0.031475        -1.375848
 O         3.254201        -1.117338        -1.508655
 C         2.720363        -0.876774        -0.206043
 C         3.429107         0.820558         1.277286
 O         2.064945         0.345406         1.562962
 H        -0.316299        -0.753196        -0.511567
 H         0.292061        -1.879209         0.701262
 H        -0.450927        -0.296813         1.312644
 H         1.825303         1.109998        -1.677205
 H         1.722141         2.115704        -0.358984
 H         4.034271         0.612797        -2.282537
 H         5.210408        -0.397334        -1.400990
 H         2.814901        -1.858326         0.623435
 H         4.156262         0.079511         1.771615
 H         3.457419         1.853887         1.623168
