19
Iteration:  3899charge 0 multiplicity 1
 C         0.058790        -0.655364         0.496306
 C         1.482911        -0.137537         0.202971
 C         1.949439         1.012085        -0.670633
 C         3.395271         0.480935        -0.163964
 C         4.298867         0.005375        -1.357884
 O         3.253278        -1.007260        -1.619593
 C         2.789390        -0.957224        -0.226818
 C         3.392411         0.929102         1.291056
 O         2.111128         0.242731         1.646763
 H        -0.202732        -1.483647        -0.305497
 H         0.153348        -1.112894         1.487425
 H        -0.656498         0.180089         0.697195
 H         1.775130         0.772542        -1.661363
 H         1.665896         1.952369        -0.401552
 H         4.394223         0.684169        -2.242973
 H         5.246345        -0.498590        -1.117036
 H         3.130069        -1.789546         0.431804
 H         4.119494         0.537497         1.937864
 H         3.293378         2.036004         1.437624
