19
Iteration:  2889
 C         0.070409        -0.820678         0.446695
 C         1.501520        -0.178082         0.277449
 C         1.888186         0.842191        -0.851345
 C         3.346862         0.510012        -0.276608
 C         4.261124        -0.153602        -1.232860
 O         3.442549        -1.356308        -1.283551
 C         2.894265        -0.861380         0.094392
 C         3.325434         1.248554         0.989220
 O         1.973808         0.662139         1.440393
 H        -0.087863        -1.481902         1.324003
 H        -0.736298        -0.177888         0.451169
 H         0.036649        -1.324601        -0.512246
 H         1.837628         0.711348        -1.890146
 H         1.570274         1.970671        -0.628396
 H         4.526727         0.243061        -2.220211
 H         5.182064        -0.388243        -0.596671
 H         3.290346        -1.509886         0.967948
 H         4.060862         0.859902         1.755381
 H         3.358343         2.335388         1.033002
