19
Iteration:   985
 C         0.160943        -0.783472         0.635174
 C         1.496881        -0.192968         0.143001
 C         2.045010        -0.069533        -1.307009
 C         3.287523         0.419342        -0.502122
 C         4.551601        -0.427924        -0.712248
 O         3.844308        -1.536215        -0.036336
 C         2.969986        -0.522684         0.659810
 C         2.852944         1.762237         0.072305
 O         1.550588         1.178030         0.598372
 H        -0.428533        -1.136140        -0.255972
 H         0.437566        -1.620426         1.374601
 H        -0.373307         0.005726         1.172703
 H         2.107346        -0.948808        -1.881079
 H         1.297459         0.626360        -1.823452
 H         4.833019        -0.692109        -1.720238
 H         5.375648        -0.089489        -0.064100
 H         3.415475        -0.351475         1.674352
 H         3.289890         2.312210         0.896816
 H         2.506241         2.589273        -0.663641
