19
Iteration:  1507
 C         0.205628        -0.833792         0.616938
 C         1.488713        -0.155895         0.168285
 C         2.060657         0.282476        -1.276022
 C         3.352414         0.568268        -0.441082
 C         4.463787        -0.507241        -0.972992
 O         3.631854        -1.530633        -0.405401
 C         2.976295        -0.660095         0.434363
 C         2.904139         1.681822         0.466067
 O         1.647672         1.013299         0.977229
 H        -0.245213        -0.409354         1.561218
 H        -0.522500        -0.551289        -0.196781
 H         0.258365        -1.962195         0.703888
 H         2.368473        -0.399352        -2.063602
 H         1.547229         1.101484        -1.769413
 H         4.611032        -0.310021        -2.066544
 H         5.428281        -0.411148        -0.469592
 H         3.368359        -0.665004         1.432795
 H         3.707534         1.894440         1.245718
 H         2.736880         2.663249         0.097659
