19
Iteration:  4806charge 0 multiplicity 1
 C         0.120792        -0.635972         0.481552
 C         1.528979        -0.133985         0.295607
 C         1.934300         0.977638        -0.691016
 C         3.432337         0.484749        -0.154097
 C         4.221324         0.048231        -1.334260
 O         3.249371        -1.023711        -1.621822
 C         2.784185        -0.983905        -0.231518
 C         3.412532         0.888777         1.275648
 O         2.044876         0.280657         1.615069
 H        -0.233866        -0.846886        -0.513502
 H         0.253293        -1.468576         1.068005
 H        -0.442812         0.092699         0.881638
 H         1.734681         0.618791        -1.741482
 H         1.627599         2.020904        -0.329420
 H         4.418993         0.808861        -2.126550
 H         5.191592        -0.465406        -1.045664
 H         3.053799        -1.859469         0.393836
 H         4.239271         0.444319         1.909875
 H         3.387007         1.971258         1.460593
