19
Iteration:  3131charge 0 multiplicity 1
 C         0.119491        -0.636902         0.573971
 C         1.497919        -0.204579         0.276591
 C         1.954629         0.800779        -0.823259
 C         3.369678         0.480023        -0.226618
 C         4.303576        -0.060820        -1.232610
 O         3.406885        -1.250706        -1.394921
 C         2.852174        -0.923226        -0.080926
 C         3.273249         1.128890         1.082841
 O         1.967398         0.558115         1.472922
 H        -0.013642        -1.732157         0.287377
 H        -0.178516        -0.540071         1.635861
 H        -0.530287        -0.156584        -0.251067
 H         1.882762         0.426701        -1.788747
 H         1.667492         1.889315        -0.820016
 H         4.324250         0.482386        -2.188727
 H         5.370589        -0.325011        -0.956557
 H         3.053153        -1.745307         0.638446
 H         3.964890         0.735082         1.847311
 H         3.177871         2.212400         1.065192
