19
Iteration:  1346
 C         0.204187        -0.832243         0.568534
 C         1.558118        -0.215426         0.185428
 C         2.007928         0.165772        -1.227637
 C         3.347340         0.563476        -0.481692
 C         4.477651        -0.487612        -0.849934
 O         3.690101        -1.576944        -0.321235
 C         2.937413        -0.580380         0.528644
 C         2.995908         1.734748         0.308161
 O         1.550923         1.102092         0.865145
 H        -0.598105        -0.215075         0.194399
 H         0.155252        -1.736323        -0.007170
 H         0.109970        -1.175463         1.594281
 H         2.147143        -0.656610        -1.973325
 H         1.496965         1.007744        -1.717236
 H         4.649459        -0.459995        -1.946688
 H         5.416187        -0.314606        -0.351664
 H         3.202755        -0.576353         1.605531
 H         3.663352         1.981142         1.136984
 H         2.710131         2.746237        -0.044938
