19
Iteration:   155
 C         0.222651        -0.759504         0.688932
 C         1.561428        -0.249693         0.137418
 C         2.196144        -0.619769        -1.271023
 C         3.272573         0.297247        -0.616168
 C         4.595611        -0.443766        -0.323823
 O         4.023828        -1.192631         0.743889
 C         2.924155        -0.072416         0.852066
 C         2.550509         1.637049        -0.667480
 O         1.383710         1.193310         0.016195
 H         0.359615        -1.097378         1.701620
 H        -0.428691         0.146590         0.714959
 H        -0.232638        -1.621603         0.160790
 H         2.442117        -1.676976        -1.441859
 H         1.723385        -0.167375        -2.107127
 H         5.016164        -1.086185        -1.061467
 H         5.438848         0.250658         0.000531
 H         3.217366         0.657117         1.575551
 H         3.003961         2.389148        -0.160209
 H         2.218321         1.921744        -1.564482
