19
Iteration:  4392charge 0 multiplicity 1
 C         0.168876        -0.765432         0.438097
 C         1.511506        -0.125601         0.246926
 C         1.978865         1.080997        -0.644537
 C         3.426424         0.558718        -0.182749
 C         4.245759         0.042800        -1.377466
 O         3.214814        -1.110991        -1.494617
 C         2.743280        -0.870606        -0.162464
 C         3.428071         0.808010         1.275730
 O         2.075973         0.327280         1.563234
 H        -0.413195        -0.632976        -0.504732
 H         0.334026        -1.811074         0.616388
 H        -0.346116        -0.308739         1.225064
 H         1.732331         0.971660        -1.885033
 H         1.694550         2.128286        -0.396943
 H         4.076167         0.701696        -2.251220
 H         5.258840        -0.442071        -1.440891
 H         2.661067        -1.630557         0.460520
 H         4.016484         0.143792         1.851296
 H         3.456069         1.848624         1.662996
