19
Iteration:  2710charge 0 multiplicity 1
 C         0.106923        -0.775960         0.494781
 C         1.460746        -0.156980         0.261648
 C         1.912625         0.652768        -0.881266
 C         3.358231         0.532560        -0.267799
 C         4.373649        -0.191277        -1.179919
 O         3.481388        -1.342836        -1.193228
 C         2.843083        -0.869872         0.086011
 C         3.252771         1.319724         0.966523
 O         1.936059         0.763844         1.380163
 H        -0.671026        -0.103348         0.569368
 H         0.036655        -1.385923        -0.451030
 H         0.110423        -1.592638         1.195541
 H         1.743445         0.047207        -1.929051
 H         1.409703         1.716706        -0.923885
 H         4.457136         0.102719        -2.277989
 H         5.402747        -0.420448        -0.736446
 H         3.066912        -1.652691         0.872514
 H         3.989529         1.191840         1.771095
 H         3.234872         2.412418         0.722385
