19
Iteration:  1155
 C         0.240531        -0.817209         0.618393
 C         1.499592        -0.191750         0.111568
 C         1.999416         0.085805        -1.300980
 C         3.302963         0.423062        -0.438313
 C         4.514511        -0.387609        -0.748862
 O         3.795773        -1.591554        -0.111570
 C         2.906357        -0.638948         0.528105
 C         2.868766         1.757602         0.149182
 O         1.584647         1.192656         0.752356
 H        -0.574005        -0.104579         0.425672
 H         0.173830        -1.812145         0.184945
 H         0.409465        -0.910771         1.686119
 H         2.171046        -0.750658        -1.903215
 H         1.588773         0.982808        -1.837910
 H         4.766141        -0.431675        -1.802850
 H         5.391334        -0.040148        -0.296564
 H         2.987820        -0.699601         1.594920
 H         3.561913         2.242571         0.936658
 H         2.604533         2.317965        -0.695847
