19
Iteration:  4540charge 0 multiplicity 1
 C         0.169338        -0.733844         0.400599
 C         1.517242        -0.055368         0.289211
 C         1.929091         0.983671        -0.644849
 C         3.387141         0.614249        -0.176382
 C         4.273244        -0.023747        -1.344819
 O         3.190274        -1.054964        -1.583868
 C         2.701654        -0.907954        -0.192947
 C         3.478716         0.824180         1.299356
 O         2.057313         0.322347         1.618441
 H        -0.141877        -0.827411        -0.595125
 H         0.393114        -1.688664         0.772644
 H        -0.428135        -0.243895         1.172793
 H         1.644147         0.842714        -1.854677
 H         1.600744         2.081297        -0.489956
 H         4.409944         0.559819        -2.285656
 H         5.209361        -0.557659        -1.019251
 H         3.058226        -1.689431         0.339508
 H         4.252740         0.155882         1.796908
 H         3.710070         1.855015         1.604102
