19
Iteration:  4919charge 0 multiplicity 1
 C         0.101620        -0.525421         0.566801
 C         1.520861        -0.207975         0.318964
 C         1.956058         1.034264        -0.640668
 C         3.334825         0.478904        -0.247671
 C         4.304147         0.072577        -1.337351
 O         3.332118        -1.069227        -1.563682
 C         2.829561        -0.982978        -0.209966
 C         3.303392         0.884323         1.214246
 O         2.050836         0.213902         1.553277
 H        -0.403546        -0.563571        -0.361005
 H         0.001910        -1.549880         0.989056
 H        -0.457073         0.196057         1.036118
 H         1.660542         0.896229        -1.822202
 H         1.728532         2.036114        -0.169717
 H         4.334968         0.517477        -2.360867
 H         5.326182        -0.425216        -1.291580
 H         3.375048        -1.708459         0.435251
 H         4.092532         0.469920         1.791929
 H         3.163130         1.941103         1.500925
