19
Iteration:   919
 C         0.186483        -0.782394         0.558306
 C         1.540335        -0.215900         0.280017
 C         1.999111        -0.165744        -1.225600
 C         3.262554         0.426263        -0.474399
 C         4.537271        -0.395054        -0.760228
 O         3.871922        -1.528491         0.034929
 C         2.985642        -0.601481         0.687617
 C         2.875160         1.769774         0.027253
 O         1.467755         1.322702         0.477401
 H        -0.397405        -0.196939         1.336910
 H        -0.463747        -1.125168        -0.328161
 H         0.443438        -1.811514         0.974193
 H         2.202149        -1.041306        -1.820156
 H         1.267067         0.550906        -1.767458
 H         4.977673        -0.574530        -1.733452
 H         5.324449        -0.101060        -0.056403
 H         3.304314        -0.380728         1.740643
 H         3.671671         2.191044         0.817927
 H         2.749504         2.547234        -0.904965
