19
Iteration:    26
 C         0.142587        -0.929807         0.735572
 C         1.455644        -0.264002         0.227236
 C         2.068309        -0.708663        -1.149724
 C         3.258039         0.241842        -0.595088
 C         4.687636        -0.243763        -0.277422
 O         4.052393        -1.113007         0.797150
 C         2.893526        -0.137224         0.853721
 C         2.764067         1.591689        -0.800376
 O         1.393419         1.342069        -0.197387
 H        -0.680388        -0.270556         0.943681
 H        -0.314762        -1.562152        -0.019330
 H         0.398249        -1.500999         1.617626
 H         2.449719        -1.749764        -1.277460
 H         1.503032        -0.392690        -2.016020
 H         5.151890        -0.825026        -1.016955
 H         5.326847         0.538049         0.208154
 H         3.069769         0.532360         1.757502
 H         3.337396         2.414416        -0.183854
 H         2.543835         1.755738        -1.961875
