19
Iteration:  3199
 C         0.218561        -0.751119         0.431711
 C         1.496558        -0.050725         0.207508
 C         1.880912         1.007348        -0.769252
 C         3.326292         0.524792        -0.245442
 C         4.210672        -0.140608        -1.292896
 O         3.441623        -1.332015        -1.319807
 C         2.754541        -0.921113        -0.055569
 C         3.326778         1.102354         1.106739
 O         2.025864         0.488799         1.547544
 H         0.168655        -1.366821         1.323207
 H        -0.700848        -0.069782         0.474043
 H         0.170231        -1.441669        -0.369731
 H         1.654702         0.964467        -1.889709
 H         1.566411         2.052028        -0.378365
 H         4.347920         0.488358        -2.225071
 H         5.300403        -0.398176        -1.005471
 H         3.062847        -1.631932         0.724518
 H         4.142526         0.677747         1.614568
 H         3.389939         2.137961         1.054858
