19
Iteration:  2267
 C         0.048494        -0.899571         0.431206
 C         1.457981        -0.141966         0.311100
 C         1.850398         0.584034        -0.902932
 C         3.300394         0.514289        -0.332494
 C         4.378864        -0.259017        -1.114044
 O         3.554085        -1.471937        -1.053489
 C         2.924978        -0.856322         0.152701
 C         3.246293         1.424887         0.858904
 O         1.922967         0.975620         1.289444
 H        -0.582646        -0.590931         1.174766
 H        -0.454919        -0.571634        -0.470699
 H         0.226464        -1.955284         0.366007
 H         1.911423         0.186149        -2.020453
 H         1.347229         1.573922        -0.932623
 H         4.764516         0.012253        -2.081272
 H         5.191256        -0.568008        -0.505734
 H         3.311497        -1.194356         1.216231
 H         3.920895         1.348821         1.636512
 H         3.397622         2.485995         0.551756
