19
Iteration:  3276charge 0 multiplicity 1
 C         0.049103        -0.670999         0.526651
 C         1.506124        -0.187555         0.212762
 C         1.910411         0.942544        -0.777099
 C         3.347959         0.488061        -0.224152
 C         4.288181        -0.086345        -1.292531
 O         3.444638        -1.223680        -1.396402
 C         2.805168        -0.961745        -0.089715
 C         3.348574         1.083829         1.129355
 O         2.039055         0.451224         1.525759
 H        -0.304385        -0.415000         1.517233
 H        -0.802886        -0.340484        -0.178809
 H         0.091034        -1.705340         0.448725
 H         1.855990         0.842506        -1.896276
 H         1.550931         1.933534        -0.464629
 H         4.094607         0.492659        -2.231529
 H         5.346595        -0.177540        -0.958206
 H         3.219440        -1.641241         0.658644
 H         4.125079         1.012041         1.842900
 H         3.178142         2.231835         0.925353
