19
Iteration:  3453
 C         0.099587        -0.695786         0.449553
 C         1.527688        -0.183066         0.188382
 C         2.005869         0.931841        -0.757077
 C         3.395574         0.548817        -0.220924
 C         4.243318         0.017796        -1.390391
 O         3.245329        -1.178952        -1.425030
 C         2.865038        -0.886238        -0.066822
 C         3.334199         0.980427         1.269341
 O         2.028504         0.385136         1.541341
 H        -0.301760        -1.589774        -0.085915
 H         0.218350        -1.004875         1.676216
 H        -0.656577         0.097782         0.379598
 H         2.038844         0.640415        -1.849059
 H         1.722948         1.887407        -0.479496
 H         4.318104         0.536993        -2.352913
 H         5.221987        -0.347137        -1.230012
 H         3.157568        -1.657871         0.645567
 H         4.106978         0.600340         1.849100
 H         3.288343         2.145635         1.474796
