19
Iteration:  4415
 C         0.122676        -0.749132         0.476598
 C         1.483714        -0.082380         0.255347
 C         1.985459         1.146085        -0.536836
 C         3.365599         0.473684        -0.224732
 C         4.188019         0.023610        -1.383462
 O         3.327381        -1.159978        -1.622226
 C         2.783638        -0.904071        -0.206773
 C         3.449907         0.796318         1.260167
 O         2.018206         0.367503         1.584894
 H        -0.399653        -1.126481        -0.417368
 H         0.509053        -1.559594         1.102801
 H        -0.494490        -0.148401         1.024983
 H         1.676900         1.172269        -1.862152
 H         1.843790         2.174191        -0.153092
 H         4.364329         0.710875        -2.253601
 H         5.193816        -0.334874        -0.961195
 H         3.003345        -1.595242         0.520782
 H         3.922427         0.209739         2.005358
 H         3.455688         1.900470         1.455344
