19
Iteration:   190
 C         0.180161        -0.819567         0.686778
 C         1.472492        -0.227205         0.194949
 C         2.192973        -0.699585        -1.125045
 C         3.317248         0.338154        -0.500369
 C         4.622998        -0.420354        -0.426874
 O         4.090045        -1.191162         0.617012
 C         2.851869        -0.221564         0.893904
 C         2.625795         1.697278        -0.640625
 O         1.352209         1.344188        -0.089222
 H        -0.244272        -0.110275         1.449462
 H        -0.521604        -0.978349        -0.138351
 H         0.377388        -1.799225         1.127223
 H         2.555586        -1.721523        -1.008712
 H         1.722326        -0.562718        -2.128203
 H         4.786930        -0.993271        -1.313419
 H         5.536544         0.170305        -0.120234
 H         3.074914         0.315601         1.873422
 H         3.108172         2.499543        -0.043555
 H         2.520791         2.169340        -1.561846
