19
Iteration:  4858charge 0 multiplicity 1
 C         0.219603        -0.770373         0.361419
 C         1.513831        -0.115949         0.265780
 C         1.931829         1.122439        -0.557517
 C         3.357659         0.538588        -0.209024
 C         4.228647        -0.030431        -1.409197
 O         3.239555        -1.119257        -1.583112
 C         2.720215        -0.872907        -0.191666
 C         3.480530         0.819912         1.288166
 O         2.013818         0.359891         1.634519
 H         0.218927        -1.576704        -0.406756
 H         0.189574        -1.186415         1.373978
 H        -0.552891         0.097341         0.294887
 H         1.793744         1.074783        -1.537566
 H         1.649805         2.093239        -0.172227
 H         4.240574         0.599324        -2.275252
 H         5.203860        -0.382614        -1.122921
 H         3.100982        -1.686169         0.576240
 H         4.196777         0.121542         1.833012
 H         3.624109         1.875998         1.590322
