19
Iteration:  3415charge 0 multiplicity 1
 C         0.062562        -0.623692         0.455798
 C         1.438257        -0.102782         0.271180
 C         1.854129         0.934334        -0.686137
 C         3.304546         0.525236        -0.273160
 C         4.287649         0.025910        -1.360553
 O         3.526426        -1.287448        -1.422448
 C         2.780617        -0.939964        -0.151342
 C         3.377619         0.964136         1.136168
 O         2.058137         0.455432         1.602752
 H        -0.531702        -0.700883        -0.492294
 H         0.260642        -1.675717         0.839603
 H        -0.435728        -0.108281         1.326814
 H         1.475845         0.783005        -1.646636
 H         1.471779         2.001706        -0.445879
 H         4.365727         0.496356        -2.350038
 H         5.232036        -0.225346        -0.815157
 H         3.039404        -1.775931         0.549031
 H         4.218166         0.362579         1.669889
 H         3.446323         1.930948         1.331336
