19
Iteration:  3987charge 0 multiplicity 1
 C         0.212214        -0.614436         0.463250
 C         1.523665        -0.103278         0.253658
 C         1.913204         1.006191        -0.621433
 C         3.402963         0.565480        -0.203953
 C         4.195192         0.014679        -1.425743
 O         3.309844        -1.102799        -1.528355
 C         2.790321        -0.874325        -0.156828
 C         3.384479         0.779843         1.302915
 O         2.018632         0.259659         1.535379
 H        -0.496667        -0.638863        -0.504823
 H         0.269213        -1.666226         0.864266
 H        -0.375386        -0.010794         1.207717
 H         1.748046         0.864963        -1.600538
 H         1.528920         1.899298        -0.389437
 H         4.218690         0.722715        -2.295356
 H         5.254778        -0.227789        -1.088098
 H         3.177764        -1.630703         0.527198
 H         4.048771         0.172579         1.867509
 H         3.459985         1.887384         1.508258
