19
Iteration:   196charge 0 multiplicity 1
 C         0.204038        -0.818876         0.667007
 C         1.476388        -0.238306         0.170881
 C         2.183677        -0.682049        -1.099487
 C         3.306194         0.302092        -0.540847
 C         4.604863        -0.358705        -0.451692
 O         4.061183        -1.258356         0.634598
 C         2.871625        -0.149361         0.917086
 C         2.621502         1.680536        -0.623585
 O         1.372861         1.332536        -0.078377
 H        -0.298480        -0.077011         1.259450
 H        -0.482998        -1.188254        -0.135268
 H         0.401869        -1.691754         1.331082
 H         2.579081        -1.706286        -0.999606
 H         1.663727        -0.596677        -2.039177
 H         4.901241        -0.910626        -1.391394
 H         5.422509         0.263479        -0.084539
 H         3.028259         0.415922         1.794748
 H         3.145441         2.379760         0.089696
 H         2.629847         2.301755        -1.623894
