19
Iteration:  3458charge 0 multiplicity 1
 C         0.116706        -0.708322         0.458993
 C         1.554036        -0.176872         0.167512
 C         1.994344         0.902857        -0.743813
 C         3.391282         0.552466        -0.217002
 C         4.231813        -0.040995        -1.401700
 O         3.226176        -1.104848        -1.426832
 C         2.851318        -0.921672        -0.066792
 C         3.352829         1.006696         1.272474
 O         2.021075         0.374854         1.551150
 H        -0.162654        -1.650008         0.006410
 H         0.135715        -0.880735         1.409883
 H        -0.582656         0.110698         0.240003
 H         2.077400         0.641444        -1.784654
 H         1.611663         2.042382        -0.644654
 H         4.230873         0.544434        -2.345018
 H         5.284056        -0.420350        -1.067955
 H         3.214076        -1.617387         0.725565
 H         4.201333         0.597399         1.970662
 H         3.276017         2.115197         1.419022
