19
Iteration:  4238
 C         0.128397        -0.702669         0.337702
 C         1.526983        -0.189120         0.315213
 C         2.016388         1.067123        -0.654678
 C         3.461563         0.532932        -0.149496
 C         4.204019        -0.037567        -1.457002
 O         3.112394        -1.057963        -1.587671
 C         2.844452        -0.848547        -0.157499
 C         3.383638         0.964218         1.391950
 O         2.109748         0.221441         1.620537
 H         0.061141        -1.375222        -0.527782
 H        -0.103221        -1.197242         1.227905
 H        -0.493326         0.118654         0.225534
 H         1.804431         0.733830        -1.731590
 H         1.676180         2.113187        -0.348310
 H         4.259360         0.541935        -2.350021
 H         5.118361        -0.555914        -1.217563
 H         3.332039        -1.815684         0.493185
 H         4.049768         0.540279         2.104563
 H         3.108463         2.018116         1.639918
