19
Iteration:  2636charge 0 multiplicity 1
 C         0.118303        -0.740803         0.442102
 C         1.486369        -0.192957         0.307952
 C         1.898943         0.683874        -0.925700
 C         3.282493         0.511535        -0.262570
 C         4.247444        -0.089285        -1.193513
 O         3.616907        -1.465551        -1.124476
 C         2.822251        -0.958105         0.085417
 C         3.250638         1.237663         0.930862
 O         1.939299         0.882957         1.353008
 H        -0.323969        -0.508715         1.477598
 H        -0.536012        -0.284516        -0.429400
 H         0.178829        -1.883090         0.365206
 H         1.873549         0.177859        -1.897554
 H         1.525902         1.686330        -0.860508
 H         4.324537         0.378910        -2.194646
 H         5.181584        -0.267319        -0.691937
 H         3.345383        -1.347697         1.106988
 H         4.064209         0.734065         1.636435
 H         3.345932         2.390730         0.777181
