19
Iteration:  1100
 C         0.146450        -0.801884         0.543119
 C         1.486657        -0.145747         0.175888
 C         1.998034        -0.102791        -1.221181
 C         3.258343         0.387184        -0.472081
 C         4.497481        -0.392711        -0.789412
 O         3.888223        -1.489607        -0.138818
 C         2.935161        -0.610565         0.661181
 C         2.873346         1.737838         0.150867
 O         1.613028         1.257400         0.669905
 H        -0.133714        -0.542668         1.565109
 H        -0.604423        -0.483669        -0.173659
 H         0.257488        -1.894272         0.462167
 H         2.070465        -1.093079        -1.669506
 H         1.469217         0.597644        -1.895755
 H         4.702969        -0.386012        -1.871281
 H         5.360220        -0.030550        -0.254016
 H         3.125024        -0.688870         1.729132
 H         3.698790         1.902924         0.998833
 H         2.845324         2.668536        -0.398402
